
 OpenBabel12191814062D

 27 29  0  0  0  0  0  0  0  0999 V2000
   -4.2868   -7.4250    0.0000 Br  0  0  0  0  0  0  0  0  0  0  0  0
   -3.5724   -7.0125    0.0000 C   0  0  0  0  0  0  0  0  0  0  0  0
   -3.5724   -6.1875    0.0000 C   0  0  0  0  0  0  0  0  0  0  0  0
   -2.8579   -5.7750    0.0000 C   0  0  0  0  0  0  0  0  0  0  0  0
   -2.1434   -6.1875    0.0000 C   0  0  0  0  0  0  0  0  0  0  0  0
   -1.4289   -5.7750    0.0000 C   0  0  0  0  0  0  0  0  0  0  0  0
   -0.7145   -6.1875    0.0000 C   0  0  0  0  0  0  0  0  0  0  0  0
    0.0000   -5.7750    0.0000 C   0  0  0  0  0  0  0  0  0  0  0  0
    0.0000   -4.9500    0.0000 N   0  0  0  0  0  0  0  0  0  0  0  0
    0.7145   -4.5375    0.0000 C   0  0  0  0  0  0  0  0  0  0  0  0
    0.7145   -3.7125    0.0000 C   0  0  0  0  0  0  0  0  0  0  0  0
    1.4289   -3.3000    0.0000 N   0  0  0  0  0  0  0  0  0  0  0  0
    1.4289   -2.4750    0.0000 S   0  0  0  0  0  0  0  0  0  0  0  0
    2.2539   -2.4750    0.0000 O   0  0  0  0  0  0  0  0  0  0  0  0
    0.6039   -2.4750    0.0000 O   0  0  0  0  0  0  0  0  0  0  0  0
    1.4289   -1.6500    0.0000 C   0  0  0  0  0  0  0  0  0  0  0  0
    0.7145   -1.2375    0.0000 C   0  0  0  0  0  0  0  0  0  0  0  0
    0.7145   -0.4125    0.0000 C   0  0  0  0  0  0  0  0  0  0  0  0
    1.4289    0.0000    0.0000 C   0  0  0  0  0  0  0  0  0  0  0  0
    2.1434   -0.4125    0.0000 C   0  0  0  0  0  0  0  0  0  0  0  0
    2.8579    0.0000    0.0000 C   0  0  0  0  0  0  0  0  0  0  0  0
    3.5724   -0.4125    0.0000 N   0  0  0  0  0  0  0  0  0  0  0  0
    3.5724   -1.2375    0.0000 C   0  0  0  0  0  0  0  0  0  0  0  0
    2.8579   -1.6500    0.0000 C   0  0  0  0  0  0  0  0  0  0  0  0
    2.1434   -1.2375    0.0000 C   0  0  0  0  0  0  0  0  0  0  0  0
   -2.1434   -7.0125    0.0000 C   0  0  0  0  0  0  0  0  0  0  0  0
   -2.8579   -7.4250    0.0000 C   0  0  0  0  0  0  0  0  0  0  0  0
  1  2  1  0  0  0  0
  2  3  2  0  0  0  0
  2 27  1  0  0  0  0
  3  4  1  0  0  0  0
  4  5  2  0  0  0  0
  5  6  1  0  0  0  0
  5 26  1  0  0  0  0
  6  7  2  0  0  0  0
  7  8  1  0  0  0  0
  8  9  1  0  0  0  0
  9 10  1  0  0  0  0
 10 11  1  0  0  0  0
 11 12  1  0  0  0  0
 12 13  1  0  0  0  0
 13 14  2  0  0  0  0
 13 15  2  0  0  0  0
 13 16  1  0  0  0  0
 16 17  2  0  0  0  0
 16 25  1  0  0  0  0
 17 18  1  0  0  0  0
 18 19  2  0  0  0  0
 19 20  1  0  0  0  0
 20 21  2  0  0  0  0
 20 25  1  0  0  0  0
 21 22  1  0  0  0  0
 22 23  2  0  0  0  0
 23 24  1  0  0  0  0
 24 25  2  0  0  0  0
 26 27  2  0  0  0  0
M  END
$$$$

 OpenBabel12191814062D

 28 31  0  0  0  0  0  0  0  0999 V2000
   -7.1447    2.4750    0.0000 Br  0  0  0  0  0  0  0  0  0  0  0  0
   -6.4302    2.0625    0.0000 C   0  0  0  0  0  0  0  0  0  0  0  0
   -5.7158    2.4750    0.0000 C   0  0  0  0  0  0  0  0  0  0  0  0
   -5.0013    2.0625    0.0000 C   0  0  0  0  0  0  0  0  0  0  0  0
   -5.0013    1.2375    0.0000 C   0  0  0  0  0  0  0  0  0  0  0  0
   -5.7158    0.8250    0.0000 C   0  0  0  0  0  0  0  0  0  0  0  0
   -6.4302    1.2375    0.0000 C   0  0  0  0  0  0  0  0  0  0  0  0
   -4.2868    0.8250    0.0000 C   0  0  0  0  0  0  0  0  0  0  0  0
   -4.2868   -0.0000    0.0000 O   0  0  0  0  0  0  0  0  0  0  0  0
   -3.5724    1.2375    0.0000 C   0  0  0  0  0  0  0  0  0  0  0  0
   -2.8579    0.8250    0.0000 C   0  0  0  0  0  0  0  0  0  0  0  0
   -2.1434    1.2375    0.0000 C   0  0  0  0  0  0  0  0  0  0  0  0
   -1.4289    0.8250    0.0000 N   0  0  0  0  0  0  0  0  0  0  0  0
   -0.7145    1.2375    0.0000 C   0  0  0  0  0  0  0  0  0  0  0  0
    0.0000    0.8250    0.0000 C   0  0  0  0  0  0  0  0  0  0  0  0
    0.0000    0.0000    0.0000 N   0  0  0  0  0  0  0  0  0  0  0  0
   -0.7145   -0.4125    0.0000 C   0  0  0  0  0  0  0  0  0  0  0  0
   -1.4289   -0.0000    0.0000 C   0  0  0  0  0  0  0  0  0  0  0  0
    0.7145   -0.4125    0.0000 C   0  0  0  0  0  0  0  0  0  0  0  0
    1.4289    0.0000    0.0000 C   0  0  0  0  0  0  0  0  0  0  0  0
    2.1434   -0.4125    0.0000 C   0  0  0  0  0  0  0  0  0  0  0  0
    2.8579    0.0000    0.0000 C   0  0  0  0  0  0  0  0  0  0  0  0
    3.5724   -0.4125    0.0000 C   0  0  0  0  0  0  0  0  0  0  0  0
    3.5724   -1.2375    0.0000 C   0  0  0  0  0  0  0  0  0  0  0  0
    2.8579   -1.6500    0.0000 C   0  0  0  0  0  0  0  0  0  0  0  0
    2.1434   -1.2375    0.0000 C   0  0  0  0  0  0  0  0  0  0  0  0
    1.4289   -1.6500    0.0000 C   0  0  0  0  0  0  0  0  0  0  0  0
    0.7145   -1.2375    0.0000 N   0  0  0  0  0  0  0  0  0  0  0  0
  1  2  1  0  0  0  0
  2  3  2  0  0  0  0
  2  7  1  0  0  0  0
  3  4  1  0  0  0  0
  4  5  2  0  0  0  0
  5  6  1  0  0  0  0
  5  8  1  0  0  0  0
  6  7  2  0  0  0  0
  8  9  2  0  0  0  0
  8 10  1  0  0  0  0
 10 11  1  0  0  0  0
 11 12  1  0  0  0  0
 12 13  1  0  0  0  0
 13 14  1  0  0  0  0
 13 18  1  0  0  0  0
 14 15  1  0  0  0  0
 15 16  1  0  0  0  0
 16 17  1  0  0  0  0
 16 19  1  0  0  0  0
 17 18  1  0  0  0  0
 19 20  2  0  0  0  0
 19 28  1  0  0  0  0
 20 21  1  0  0  0  0
 21 22  2  0  0  0  0
 21 26  1  0  0  0  0
 22 23  1  0  0  0  0
 23 24  2  0  0  0  0
 24 25  1  0  0  0  0
 25 26  2  0  0  0  0
 26 27  1  0  0  0  0
 27 28  2  0  0  0  0
M  END
$$$$

 OpenBabel12191814062D

 28 31  0  0  0  0  0  0  0  0999 V2000
   -2.1434   -2.8875    0.0000 C   0  0  0  0  0  0  0  0  0  0  0  0
   -2.1434   -3.7125    0.0000 C   0  0  0  0  0  0  0  0  0  0  0  0
   -1.4289   -4.1250    0.0000 C   0  0  0  0  0  0  0  0  0  0  0  0
   -1.4289   -4.9500    0.0000 C   0  0  0  0  0  0  0  0  0  0  0  0
   -0.7145   -5.3625    0.0000 C   0  0  0  0  0  0  0  0  0  0  0  0
   -0.7145   -6.1875    0.0000 C   0  0  0  0  0  0  0  0  0  0  0  0
   -1.4289   -6.6000    0.0000 C   0  0  0  0  0  0  0  0  0  0  0  0
   -2.1434   -6.1875    0.0000 C   0  0  0  0  0  0  0  0  0  0  0  0
   -2.1434   -5.3625    0.0000 C   0  0  0  0  0  0  0  0  0  0  0  0
   -1.4289   -2.4750    0.0000 N   0  0  0  0  0  0  0  0  0  0  0  0
   -1.4289   -1.6500    0.0000 C   0  0  0  0  0  0  0  0  0  0  0  0
   -0.7145   -1.2375    0.0000 C   0  0  0  0  0  0  0  0  0  0  0  0
    0.0000   -1.6500    0.0000 N   0  0  0  0  0  0  0  0  0  0  0  0
    0.0000   -2.4750    0.0000 C   0  0  0  0  0  0  0  0  0  0  0  0
   -0.7145   -2.8875    0.0000 C   0  0  0  0  0  0  0  0  0  0  0  0
    0.7145   -1.2375    0.0000 C   0  0  0  0  0  0  0  0  0  0  0  0
    1.4289   -1.6500    0.0000 C   0  0  0  0  0  0  0  0  0  0  0  0
    2.1434   -1.2375    0.0000 C   0  0  0  0  0  0  0  0  0  0  0  0
    2.8579   -1.6500    0.0000 C   0  0  0  0  0  0  0  0  0  0  0  0
    2.8579   -2.4750    0.0000 C   0  0  0  0  0  0  0  0  0  0  0  0
    2.1434   -2.8875    0.0000 C   0  0  0  0  0  0  0  0  0  0  0  0
    1.4289   -2.4750    0.0000 C   0  0  0  0  0  0  0  0  0  0  0  0
    0.7145   -0.4125    0.0000 C   0  0  0  0  0  0  0  0  0  0  0  0
    0.0000   -0.0000    0.0000 C   0  0  0  0  0  0  0  0  0  0  0  0
    0.0000    0.8250    0.0000 C   0  0  0  0  0  0  0  0  0  0  0  0
    0.7145    1.2375    0.0000 C   0  0  0  0  0  0  0  0  0  0  0  0
    1.4289    0.8250    0.0000 C   0  0  0  0  0  0  0  0  0  0  0  0
    1.4289   -0.0000    0.0000 C   0  0  0  0  0  0  0  0  0  0  0  0
  1  2  1  0  0  0  0
  1 10  1  0  0  0  0
  2  3  2  0  0  0  0
  3  4  1  0  0  0  0
  4  5  2  0  0  0  0
  4  9  1  0  0  0  0
  5  6  1  0  0  0  0
  6  7  2  0  0  0  0
  7  8  1  0  0  0  0
  8  9  2  0  0  0  0
 10 11  1  0  0  0  0
 10 15  1  0  0  0  0
 11 12  1  0  0  0  0
 12 13  1  0  0  0  0
 13 14  1  0  0  0  0
 13 16  1  0  0  0  0
 14 15  1  0  0  0  0
 16 17  1  0  0  0  0
 16 23  1  0  0  0  0
 17 18  2  0  0  0  0
 17 22  1  0  0  0  0
 18 19  1  0  0  0  0
 19 20  2  0  0  0  0
 20 21  1  0  0  0  0
 21 22  2  0  0  0  0
 23 24  2  0  0  0  0
 23 28  1  0  0  0  0
 24 25  1  0  0  0  0
 25 26  2  0  0  0  0
 26 27  1  0  0  0  0
 27 28  2  0  0  0  0
M  END
$$$$

 OpenBabel12191814062D

 23 27  0  0  0  0  0  0  0  0999 V2000
    1.5251    0.6584    0.0000 C   0  0  0  0  0  0  0  0  0  0  0  0
    2.2396    1.0709    0.0000 C   0  0  3  0  0  0  0  0  0  0  0  0
    2.2396    1.8959    0.0000 C   0  0  0  0  0  0  0  0  0  0  0  0
    2.9540    2.3084    0.0000 N   0  0  3  0  0  0  0  0  0  0  0  0
    3.6685    1.8959    0.0000 C   0  0  0  0  0  0  0  0  0  0  0  0
    3.6685    1.0709    0.0000 C   0  0  0  0  0  0  0  0  0  0  0  0
    2.9540    0.6584    0.0000 C   0  0  3  0  0  0  0  0  0  0  0  0
    3.0915    1.2084    0.0000 C   0  0  0  0  0  0  0  0  0  0  0  0
    3.0915    1.7584    0.0000 C   0  0  0  0  0  0  0  0  0  0  0  0
    0.8106    1.0709    0.0000 N   0  0  0  0  0  0  0  0  0  0  0  0
    0.0962    0.6584    0.0000 C   0  0  0  0  0  0  0  0  0  0  0  0
    0.0962   -0.1666    0.0000 C   0  0  0  0  0  0  0  0  0  0  0  0
   -0.6183   -0.5791    0.0000 C   0  0  0  0  0  0  0  0  0  0  0  0
   -1.3328   -0.1666    0.0000 C   0  0  0  0  0  0  0  0  0  0  0  0
   -1.3328    0.6584    0.0000 C   0  0  0  0  0  0  0  0  0  0  0  0
   -0.6183    1.0709    0.0000 C   0  0  0  0  0  0  0  0  0  0  0  0
   -0.6183    1.8959    0.0000 S   0  0  0  0  0  0  0  0  0  0  0  0
    0.0962    2.3084    0.0000 C   0  0  0  0  0  0  0  0  0  0  0  0
    0.0962    3.1334    0.0000 C   0  0  0  0  0  0  0  0  0  0  0  0
    0.8106    3.5459    0.0000 C   0  0  0  0  0  0  0  0  0  0  0  0
    1.5251    3.1334    0.0000 C   0  0  0  0  0  0  0  0  0  0  0  0
    1.5251    2.3084    0.0000 C   0  0  0  0  0  0  0  0  0  0  0  0
    0.8106    1.8959    0.0000 C   0  0  0  0  0  0  0  0  0  0  0  0
  1  2  1  0  0  0  0
  1 10  1  0  0  0  0
  2  3  1  0  0  0  0
  2  7  1  0  0  0  0
  3  4  1  0  0  0  0
  4  5  1  0  0  0  0
  4  9  1  0  0  0  0
  5  6  1  0  0  0  0
  6  7  1  0  0  0  0
  7  8  1  0  0  0  0
  8  9  1  0  0  0  0
 10 11  1  0  0  0  0
 10 23  1  0  0  0  0
 11 12  2  0  0  0  0
 11 16  1  0  0  0  0
 12 13  1  0  0  0  0
 13 14  2  0  0  0  0
 14 15  1  0  0  0  0
 15 16  2  0  0  0  0
 16 17  1  0  0  0  0
 17 18  1  0  0  0  0
 18 19  2  0  0  0  0
 18 23  1  0  0  0  0
 19 20  1  0  0  0  0
 20 21  2  0  0  0  0
 21 22  1  0  0  0  0
 22 23  2  0  0  0  0
M  END
$$$$

 OpenBabel12191814062D

 23 26  0  0  0  0  0  0  0  0999 V2000
   -0.1712   -0.6979    0.0000 C   0  0  0  0  0  0  0  0  0  0  0  0
    0.6538   -0.6979    0.0000 C   0  0  3  0  0  0  0  0  0  0  0  0
    1.1387   -0.0305    0.0000 O   0  0  0  0  0  0  0  0  0  0  0  0
    1.9233   -0.2854    0.0000 C   0  0  0  0  0  0  0  0  0  0  0  0
    2.6378    0.1271    0.0000 C   0  0  0  0  0  0  0  0  0  0  0  0
    3.3523   -0.2854    0.0000 C   0  0  0  0  0  0  0  0  0  0  0  0
    3.3523   -1.1104    0.0000 C   0  0  0  0  0  0  0  0  0  0  0  0
    2.6378   -1.5229    0.0000 C   0  0  0  0  0  0  0  0  0  0  0  0
    1.9233   -1.1104    0.0000 C   0  0  0  0  0  0  0  0  0  0  0  0
    1.1387   -1.3654    0.0000 C   0  0  3  0  0  0  0  0  0  0  0  0
    0.8838   -2.1500    0.0000 C   0  0  0  0  0  0  0  0  0  0  0  0
    1.4358   -2.7631    0.0000 C   0  0  0  0  0  0  0  0  0  0  0  0
    2.2428   -2.5916    0.0000 C   0  0  0  0  0  0  0  0  0  0  0  0
    2.7948   -3.2047    0.0000 C   0  0  0  0  0  0  0  0  0  0  0  0
    2.5399   -3.9893    0.0000 C   0  0  0  0  0  0  0  0  0  0  0  0
    1.7329   -4.1608    0.0000 C   0  0  0  0  0  0  0  0  0  0  0  0
    1.1809   -3.5477    0.0000 C   0  0  0  0  0  0  0  0  0  0  0  0
   -0.5837    0.0165    0.0000 N   0  0  0  0  0  0  0  0  0  0  0  0
   -1.4087    0.0165    0.0000 C   0  0  0  0  0  0  0  0  0  0  0  0
   -1.8212    0.7310    0.0000 C   0  0  0  0  0  0  0  0  0  0  0  0
   -1.4087    1.4455    0.0000 C   0  0  0  0  0  0  0  0  0  0  0  0
   -0.5837    1.4455    0.0000 C   0  0  0  0  0  0  0  0  0  0  0  0
   -0.1712    0.7310    0.0000 C   0  0  0  0  0  0  0  0  0  0  0  0
  1  2  1  0  0  0  0
  1 18  1  0  0  0  0
  2  3  1  0  0  0  0
  2 10  1  0  0  0  0
  3  4  1  0  0  0  0
  4  5  2  0  0  0  0
  4  9  1  0  0  0  0
  5  6  1  0  0  0  0
  6  7  2  0  0  0  0
  7  8  1  0  0  0  0
  8  9  2  0  0  0  0
  9 10  1  0  0  0  0
 10 11  1  0  0  0  0
 11 12  1  0  0  0  0
 12 13  2  0  0  0  0
 12 17  1  0  0  0  0
 13 14  1  0  0  0  0
 14 15  2  0  0  0  0
 15 16  1  0  0  0  0
 16 17  2  0  0  0  0
 18 19  1  0  0  0  0
 18 23  1  0  0  0  0
 19 20  1  0  0  0  0
 20 21  1  0  0  0  0
 21 22  1  0  0  0  0
 22 23  1  0  0  0  0
M  END
$$$$

 OpenBabel12191814062D

 27 30  0  0  0  0  0  0  0  0999 V2000
    0.7145   -1.2375    0.0000 C   0  0  0  0  0  0  0  0  0  0  0  0
    1.4289   -1.6500    0.0000 C   0  0  0  0  0  0  0  0  0  0  0  0
    1.4289   -2.4750    0.0000 C   0  0  0  0  0  0  0  0  0  0  0  0
    2.0964   -2.9599    0.0000 N   0  0  0  0  0  0  0  0  0  0  0  0
    1.8414   -3.7445    0.0000 C   0  0  0  0  0  0  0  0  0  0  0  0
    2.3264   -4.4120    0.0000 C   0  0  0  0  0  0  0  0  0  0  0  0
    1.9908   -5.1657    0.0000 C   0  0  0  0  0  0  0  0  0  0  0  0
    2.4757   -5.8331    0.0000 C   0  0  0  0  0  0  0  0  0  0  0  0
    3.2962   -5.7469    0.0000 C   0  0  0  0  0  0  0  0  0  0  0  0
    3.7811   -6.4143    0.0000 C   0  0  0  0  0  0  0  0  0  0  0  0
    3.4456   -7.1680    0.0000 C   0  0  0  0  0  0  0  0  0  0  0  0
    2.6251   -7.2542    0.0000 C   0  0  0  0  0  0  0  0  0  0  0  0
    2.1402   -6.5868    0.0000 C   0  0  0  0  0  0  0  0  0  0  0  0
    1.1703   -5.2519    0.0000 C   0  0  0  0  0  0  0  0  0  0  0  0
    0.8348   -6.0056    0.0000 C   0  0  0  0  0  0  0  0  0  0  0  0
    0.0143   -6.0918    0.0000 C   0  0  0  0  0  0  0  0  0  0  0  0
   -0.4706   -5.4244    0.0000 C   0  0  0  0  0  0  0  0  0  0  0  0
   -0.1351   -4.6707    0.0000 C   0  0  0  0  0  0  0  0  0  0  0  0
    0.6854   -4.5845    0.0000 C   0  0  0  0  0  0  0  0  0  0  0  0
    1.0164   -3.7445    0.0000 N   0  0  0  0  0  0  0  0  0  0  0  0
    0.7615   -2.9599    0.0000 O   0  0  0  0  0  0  0  0  0  0  0  0
    0.7145   -0.4125    0.0000 N   0  0  0  0  0  0  0  0  0  0  0  0
    0.0000    0.0000    0.0000 C   0  0  0  0  0  0  0  0  0  0  0  0
    0.0000    0.8250    0.0000 C   0  0  0  0  0  0  0  0  0  0  0  0
    0.7145    1.2375    0.0000 C   0  0  0  0  0  0  0  0  0  0  0  0
    1.4289    0.8250    0.0000 C   0  0  0  0  0  0  0  0  0  0  0  0
    1.4289    0.0000    0.0000 C   0  0  0  0  0  0  0  0  0  0  0  0
  1  2  1  0  0  0  0
  1 22  1  0  0  0  0
  2  3  1  0  0  0  0
  3  4  2  0  0  0  0
  3 21  1  0  0  0  0
  4  5  1  0  0  0  0
  5  6  1  0  0  0  0
  5 20  2  0  0  0  0
  6  7  1  0  0  0  0
  7  8  1  0  0  0  0
  7 14  1  0  0  0  0
  8  9  2  0  0  0  0
  8 13  1  0  0  0  0
  9 10  1  0  0  0  0
 10 11  2  0  0  0  0
 11 12  1  0  0  0  0
 12 13  2  0  0  0  0
 14 15  2  0  0  0  0
 14 19  1  0  0  0  0
 15 16  1  0  0  0  0
 16 17  2  0  0  0  0
 17 18  1  0  0  0  0
 18 19  2  0  0  0  0
 20 21  1  0  0  0  0
 22 23  1  0  0  0  0
 22 27  1  0  0  0  0
 23 24  1  0  0  0  0
 24 25  1  0  0  0  0
 25 26  1  0  0  0  0
 26 27  1  0  0  0  0
M  END
$$$$

 OpenBabel12191814062D

 25 28  0  0  0  0  0  0  0  0999 V2000
   -0.5837   -1.4124    0.0000 C   0  0  0  0  0  0  0  0  0  0  0  0
   -0.1712   -0.6979    0.0000 C   0  0  0  0  0  0  0  0  0  0  0  0
    0.6538   -0.6979    0.0000 C   0  0  0  0  0  0  0  0  0  0  0  0
    1.1387   -0.0305    0.0000 O   0  0  0  0  0  0  0  0  0  0  0  0
    1.9233   -0.2854    0.0000 C   0  0  0  0  0  0  0  0  0  0  0  0
    2.6378    0.1271    0.0000 C   0  0  0  0  0  0  0  0  0  0  0  0
    3.3523   -0.2854    0.0000 C   0  0  0  0  0  0  0  0  0  0  0  0
    3.3523   -1.1104    0.0000 C   0  0  0  0  0  0  0  0  0  0  0  0
    2.6378   -1.5229    0.0000 C   0  0  0  0  0  0  0  0  0  0  0  0
    1.9233   -1.1104    0.0000 C   0  0  0  0  0  0  0  0  0  0  0  0
    1.1387   -1.3654    0.0000 C   0  0  0  0  0  0  0  0  0  0  0  0
    0.8838   -2.1500    0.0000 C   0  0  0  0  0  0  0  0  0  0  0  0
    1.4358   -2.7631    0.0000 C   0  0  0  0  0  0  0  0  0  0  0  0
    1.1809   -3.5477    0.0000 C   0  0  0  0  0  0  0  0  0  0  0  0
    1.7329   -4.1608    0.0000 C   0  0  0  0  0  0  0  0  0  0  0  0
    1.4780   -4.9454    0.0000 C   0  0  0  0  0  0  0  0  0  0  0  0
    0.6710   -5.1170    0.0000 C   0  0  0  0  0  0  0  0  0  0  0  0
    0.1190   -4.5039    0.0000 C   0  0  0  0  0  0  0  0  0  0  0  0
    0.3739   -3.7192    0.0000 C   0  0  0  0  0  0  0  0  0  0  0  0
   -1.4087   -1.4124    0.0000 N   0  0  0  0  0  0  0  0  0  0  0  0
   -1.8212   -2.1269    0.0000 C   0  0  0  0  0  0  0  0  0  0  0  0
   -2.6462   -2.1269    0.0000 C   0  0  0  0  0  0  0  0  0  0  0  0
   -3.0587   -1.4124    0.0000 C   0  0  0  0  0  0  0  0  0  0  0  0
   -2.6462   -0.6979    0.0000 C   0  0  0  0  0  0  0  0  0  0  0  0
   -1.8212   -0.6979    0.0000 C   0  0  0  0  0  0  0  0  0  0  0  0
  1  2  1  0  0  0  0
  1 20  1  0  0  0  0
  2  3  1  0  0  0  0
  3  4  1  0  0  0  0
  3 11  2  0  0  0  0
  4  5  1  0  0  0  0
  5  6  2  0  0  0  0
  5 10  1  0  0  0  0
  6  7  1  0  0  0  0
  7  8  2  0  0  0  0
  8  9  1  0  0  0  0
  9 10  2  0  0  0  0
 10 11  1  0  0  0  0
 11 12  1  0  0  0  0
 12 13  1  0  0  0  0
 13 14  1  0  0  0  0
 14 15  2  0  0  0  0
 14 19  1  0  0  0  0
 15 16  1  0  0  0  0
 16 17  2  0  0  0  0
 17 18  1  0  0  0  0
 18 19  2  0  0  0  0
 20 21  1  0  0  0  0
 20 25  1  0  0  0  0
 21 22  1  0  0  0  0
 22 23  1  0  0  0  0
 23 24  1  0  0  0  0
 24 25  1  0  0  0  0
M  END
$$$$

 OpenBabel12191814062D

 24 27  0  0  0  0  0  0  0  0999 V2000
    1.4289    3.3000    0.0000 C   0  0  0  0  0  0  0  0  0  0  0  0
    1.4289    2.4750    0.0000 C   0  0  0  0  0  0  0  0  0  0  0  0
    2.1434    2.0625    0.0000 C   0  0  0  0  0  0  0  0  0  0  0  0
    2.1434    1.2375    0.0000 N   0  0  0  0  0  0  0  0  0  0  0  0
    2.8579    0.8250    0.0000 C   0  0  0  0  0  0  0  0  0  0  0  0
    3.5724    1.2375    0.0000 C   0  0  0  0  0  0  0  0  0  0  0  0
    4.2868    0.8250    0.0000 C   0  0  0  0  0  0  0  0  0  0  0  0
    4.2868   -0.0000    0.0000 C   0  0  0  0  0  0  0  0  0  0  0  0
    3.5724   -0.4125    0.0000 C   0  0  0  0  0  0  0  0  0  0  0  0
    2.8579    0.0000    0.0000 C   0  0  0  0  0  0  0  0  0  0  0  0
    2.1434   -0.4125    0.0000 O   0  0  0  0  0  0  0  0  0  0  0  0
    1.4289    0.0000    0.0000 C   0  0  0  0  0  0  0  0  0  0  0  0
    0.7145   -0.4125    0.0000 C   0  0  0  0  0  0  0  0  0  0  0  0
    0.0000    0.0000    0.0000 C   0  0  0  0  0  0  0  0  0  0  0  0
    0.0000    0.8250    0.0000 C   0  0  0  0  0  0  0  0  0  0  0  0
    0.7145    1.2375    0.0000 C   0  0  0  0  0  0  0  0  0  0  0  0
    1.4289    0.8250    0.0000 C   0  0  0  0  0  0  0  0  0  0  0  0
    0.7145    3.7125    0.0000 C   0  0  0  0  0  0  0  0  0  0  0  0
    0.7145    4.5375    0.0000 N   0  0  0  0  0  0  0  0  0  0  0  0
   -0.0000    4.9500    0.0000 C   0  0  0  0  0  0  0  0  0  0  0  0
   -0.0000    5.7750    0.0000 C   0  0  0  0  0  0  0  0  0  0  0  0
    0.7145    6.1875    0.0000 C   0  0  0  0  0  0  0  0  0  0  0  0
    1.4289    5.7750    0.0000 C   0  0  0  0  0  0  0  0  0  0  0  0
    1.4289    4.9500    0.0000 C   0  0  0  0  0  0  0  0  0  0  0  0
  1  2  1  0  0  0  0
  1 18  1  0  0  0  0
  2  3  1  0  0  0  0
  3  4  1  0  0  0  0
  4  5  1  0  0  0  0
  4 17  1  0  0  0  0
  5  6  2  0  0  0  0
  5 10  1  0  0  0  0
  6  7  1  0  0  0  0
  7  8  2  0  0  0  0
  8  9  1  0  0  0  0
  9 10  2  0  0  0  0
 10 11  1  0  0  0  0
 11 12  1  0  0  0  0
 12 13  2  0  0  0  0
 12 17  1  0  0  0  0
 13 14  1  0  0  0  0
 14 15  2  0  0  0  0
 15 16  1  0  0  0  0
 16 17  2  0  0  0  0
 18 19  1  0  0  0  0
 19 20  1  0  0  0  0
 19 24  1  0  0  0  0
 20 21  1  0  0  0  0
 21 22  1  0  0  0  0
 22 23  1  0  0  0  0
 23 24  1  0  0  0  0
M  END
$$$$

 OpenBabel12191814062D

 24 27  0  0  0  0  0  0  0  0999 V2000
    1.4289    3.3000    0.0000 C   0  0  0  0  0  0  0  0  0  0  0  0
    1.4289    2.4750    0.0000 C   0  0  0  0  0  0  0  0  0  0  0  0
    2.1434    2.0625    0.0000 C   0  0  0  0  0  0  0  0  0  0  0  0
    2.1434    1.2375    0.0000 N   0  0  0  0  0  0  0  0  0  0  0  0
    2.8579    0.8250    0.0000 C   0  0  0  0  0  0  0  0  0  0  0  0
    3.5724    1.2375    0.0000 C   0  0  0  0  0  0  0  0  0  0  0  0
    4.2868    0.8250    0.0000 C   0  0  0  0  0  0  0  0  0  0  0  0
    4.2868   -0.0000    0.0000 C   0  0  0  0  0  0  0  0  0  0  0  0
    3.5724   -0.4125    0.0000 C   0  0  0  0  0  0  0  0  0  0  0  0
    2.8579    0.0000    0.0000 C   0  0  0  0  0  0  0  0  0  0  0  0
    2.1434   -0.4125    0.0000 O   0  0  0  0  0  0  0  0  0  0  0  0
    1.4289    0.0000    0.0000 C   0  0  0  0  0  0  0  0  0  0  0  0
    0.7145   -0.4125    0.0000 C   0  0  0  0  0  0  0  0  0  0  0  0
    0.0000    0.0000    0.0000 C   0  0  0  0  0  0  0  0  0  0  0  0
    0.0000    0.8250    0.0000 C   0  0  0  0  0  0  0  0  0  0  0  0
    0.7145    1.2375    0.0000 C   0  0  0  0  0  0  0  0  0  0  0  0
    1.4289    0.8250    0.0000 C   0  0  0  0  0  0  0  0  0  0  0  0
    0.7145    3.7125    0.0000 C   0  0  0  0  0  0  0  0  0  0  0  0
    0.7145    4.5375    0.0000 N   0  0  0  0  0  0  0  0  0  0  0  0
   -0.0000    4.9500    0.0000 C   0  0  0  0  0  0  0  0  0  0  0  0
   -0.0000    5.7750    0.0000 C   0  0  0  0  0  0  0  0  0  0  0  0
    0.7145    6.1875    0.0000 O   0  0  0  0  0  0  0  0  0  0  0  0
    1.4289    5.7750    0.0000 C   0  0  0  0  0  0  0  0  0  0  0  0
    1.4289    4.9500    0.0000 C   0  0  0  0  0  0  0  0  0  0  0  0
  1  2  1  0  0  0  0
  1 18  1  0  0  0  0
  2  3  1  0  0  0  0
  3  4  1  0  0  0  0
  4  5  1  0  0  0  0
  4 17  1  0  0  0  0
  5  6  2  0  0  0  0
  5 10  1  0  0  0  0
  6  7  1  0  0  0  0
  7  8  2  0  0  0  0
  8  9  1  0  0  0  0
  9 10  2  0  0  0  0
 10 11  1  0  0  0  0
 11 12  1  0  0  0  0
 12 13  2  0  0  0  0
 12 17  1  0  0  0  0
 13 14  1  0  0  0  0
 14 15  2  0  0  0  0
 15 16  1  0  0  0  0
 16 17  2  0  0  0  0
 18 19  1  0  0  0  0
 19 20  1  0  0  0  0
 19 24  1  0  0  0  0
 20 21  1  0  0  0  0
 21 22  1  0  0  0  0
 22 23  1  0  0  0  0
 23 24  1  0  0  0  0
M  END
$$$$

 OpenBabel12191814062D

 21 24  0  0  0  0  0  0  0  0999 V2000
    1.4289    2.4750    0.0000 C   0  0  0  0  0  0  0  0  0  0  0  0
    2.1434    2.0625    0.0000 C   0  0  0  0  0  0  0  0  0  0  0  0
    2.1434    1.2375    0.0000 N   0  0  0  0  0  0  0  0  0  0  0  0
    2.8579    0.8250    0.0000 C   0  0  0  0  0  0  0  0  0  0  0  0
    3.5724    1.2375    0.0000 C   0  0  0  0  0  0  0  0  0  0  0  0
    4.2868    0.8250    0.0000 C   0  0  0  0  0  0  0  0  0  0  0  0
    4.2868   -0.0000    0.0000 C   0  0  0  0  0  0  0  0  0  0  0  0
    3.5724   -0.4125    0.0000 C   0  0  0  0  0  0  0  0  0  0  0  0
    2.8579    0.0000    0.0000 C   0  0  0  0  0  0  0  0  0  0  0  0
    2.1434   -0.4125    0.0000 S   0  0  0  0  0  0  0  0  0  0  0  0
    1.4289    0.0000    0.0000 C   0  0  0  0  0  0  0  0  0  0  0  0
    0.7145   -0.4125    0.0000 C   0  0  0  0  0  0  0  0  0  0  0  0
    0.0000    0.0000    0.0000 C   0  0  0  0  0  0  0  0  0  0  0  0
    0.0000    0.8250    0.0000 C   0  0  0  0  0  0  0  0  0  0  0  0
    0.7145    1.2375    0.0000 C   0  0  0  0  0  0  0  0  0  0  0  0
    1.4289    0.8250    0.0000 C   0  0  0  0  0  0  0  0  0  0  0  0
    1.4289    3.3000    0.0000 N   0  0  0  0  0  0  0  0  0  0  0  0
    0.7615    3.7849    0.0000 C   0  0  0  0  0  0  0  0  0  0  0  0
    1.0164    4.5695    0.0000 C   0  0  0  0  0  0  0  0  0  0  0  0
    1.8414    4.5695    0.0000 C   0  0  0  0  0  0  0  0  0  0  0  0
    2.0964    3.7849    0.0000 C   0  0  0  0  0  0  0  0  0  0  0  0
  1  2  1  0  0  0  0
  1 17  1  0  0  0  0
  2  3  1  0  0  0  0
  3  4  1  0  0  0  0
  3 16  1  0  0  0  0
  4  5  2  0  0  0  0
  4  9  1  0  0  0  0
  5  6  1  0  0  0  0
  6  7  2  0  0  0  0
  7  8  1  0  0  0  0
  8  9  2  0  0  0  0
  9 10  1  0  0  0  0
 10 11  1  0  0  0  0
 11 12  2  0  0  0  0
 11 16  1  0  0  0  0
 12 13  1  0  0  0  0
 13 14  2  0  0  0  0
 14 15  1  0  0  0  0
 15 16  2  0  0  0  0
 17 18  1  0  0  0  0
 17 21  1  0  0  0  0
 18 19  1  0  0  0  0
 19 20  1  0  0  0  0
 20 21  1  0  0  0  0
M  END
$$$$

 OpenBabel12191814062D

 23 26  0  0  0  0  0  0  0  0999 V2000
    1.4289    2.4750    0.0000 C   0  0  0  0  0  0  0  0  0  0  0  0
    1.4289    3.3000    0.0000 C   0  0  0  0  0  0  0  0  0  0  0  0
    0.7145    3.7125    0.0000 N   0  0  0  0  0  0  0  0  0  0  0  0
   -0.0000    3.3000    0.0000 C   0  0  0  0  0  0  0  0  0  0  0  0
   -0.7145    3.7125    0.0000 C   0  0  0  0  0  0  0  0  0  0  0  0
   -0.7145    4.5375    0.0000 C   0  0  0  0  0  0  0  0  0  0  0  0
   -0.0000    4.9500    0.0000 C   0  0  0  0  0  0  0  0  0  0  0  0
    0.7145    4.5375    0.0000 C   0  0  0  0  0  0  0  0  0  0  0  0
    2.1434    2.0625    0.0000 C   0  0  0  0  0  0  0  0  0  0  0  0
    2.1434    1.2375    0.0000 N   0  0  0  0  0  0  0  0  0  0  0  0
    2.8579    0.8250    0.0000 C   0  0  0  0  0  0  0  0  0  0  0  0
    3.5724    1.2375    0.0000 C   0  0  0  0  0  0  0  0  0  0  0  0
    4.2868    0.8250    0.0000 C   0  0  0  0  0  0  0  0  0  0  0  0
    4.2868   -0.0000    0.0000 C   0  0  0  0  0  0  0  0  0  0  0  0
    3.5724   -0.4125    0.0000 C   0  0  0  0  0  0  0  0  0  0  0  0
    2.8579    0.0000    0.0000 C   0  0  0  0  0  0  0  0  0  0  0  0
    2.1434   -0.4125    0.0000 O   0  0  0  0  0  0  0  0  0  0  0  0
    1.4289    0.0000    0.0000 C   0  0  0  0  0  0  0  0  0  0  0  0
    0.7145   -0.4125    0.0000 C   0  0  0  0  0  0  0  0  0  0  0  0
    0.0000    0.0000    0.0000 C   0  0  0  0  0  0  0  0  0  0  0  0
    0.0000    0.8250    0.0000 C   0  0  0  0  0  0  0  0  0  0  0  0
    0.7145    1.2375    0.0000 C   0  0  0  0  0  0  0  0  0  0  0  0
    1.4289    0.8250    0.0000 C   0  0  0  0  0  0  0  0  0  0  0  0
  1  2  1  0  0  0  0
  1  9  1  0  0  0  0
  2  3  1  0  0  0  0
  3  4  1  0  0  0  0
  3  8  1  0  0  0  0
  4  5  1  0  0  0  0
  5  6  1  0  0  0  0
  6  7  1  0  0  0  0
  7  8  1  0  0  0  0
  9 10  1  0  0  0  0
 10 11  1  0  0  0  0
 10 23  1  0  0  0  0
 11 12  2  0  0  0  0
 11 16  1  0  0  0  0
 12 13  1  0  0  0  0
 13 14  2  0  0  0  0
 14 15  1  0  0  0  0
 15 16  2  0  0  0  0
 16 17  1  0  0  0  0
 17 18  1  0  0  0  0
 18 19  2  0  0  0  0
 18 23  1  0  0  0  0
 19 20  1  0  0  0  0
 20 21  2  0  0  0  0
 21 22  1  0  0  0  0
 22 23  2  0  0  0  0
M  END
$$$$

 OpenBabel12191814062D

 23 26  0  0  0  0  0  0  0  0999 V2000
    1.4289    2.4750    0.0000 C   0  0  0  0  0  0  0  0  0  0  0  0
    1.4289    3.3000    0.0000 C   0  0  0  0  0  0  0  0  0  0  0  0
    0.7145    3.7125    0.0000 N   0  0  0  0  0  0  0  0  0  0  0  0
   -0.0000    3.3000    0.0000 C   0  0  0  0  0  0  0  0  0  0  0  0
   -0.7145    3.7125    0.0000 C   0  0  0  0  0  0  0  0  0  0  0  0
   -0.7145    4.5375    0.0000 O   0  0  0  0  0  0  0  0  0  0  0  0
   -0.0000    4.9500    0.0000 C   0  0  0  0  0  0  0  0  0  0  0  0
    0.7145    4.5375    0.0000 C   0  0  0  0  0  0  0  0  0  0  0  0
    2.1434    2.0625    0.0000 C   0  0  0  0  0  0  0  0  0  0  0  0
    2.1434    1.2375    0.0000 N   0  0  0  0  0  0  0  0  0  0  0  0
    2.8579    0.8250    0.0000 C   0  0  0  0  0  0  0  0  0  0  0  0
    3.5724    1.2375    0.0000 C   0  0  0  0  0  0  0  0  0  0  0  0
    4.2868    0.8250    0.0000 C   0  0  0  0  0  0  0  0  0  0  0  0
    4.2868   -0.0000    0.0000 C   0  0  0  0  0  0  0  0  0  0  0  0
    3.5724   -0.4125    0.0000 C   0  0  0  0  0  0  0  0  0  0  0  0
    2.8579    0.0000    0.0000 C   0  0  0  0  0  0  0  0  0  0  0  0
    2.1434   -0.4125    0.0000 O   0  0  0  0  0  0  0  0  0  0  0  0
    1.4289    0.0000    0.0000 C   0  0  0  0  0  0  0  0  0  0  0  0
    0.7145   -0.4125    0.0000 C   0  0  0  0  0  0  0  0  0  0  0  0
    0.0000    0.0000    0.0000 C   0  0  0  0  0  0  0  0  0  0  0  0
    0.0000    0.8250    0.0000 C   0  0  0  0  0  0  0  0  0  0  0  0
    0.7145    1.2375    0.0000 C   0  0  0  0  0  0  0  0  0  0  0  0
    1.4289    0.8250    0.0000 C   0  0  0  0  0  0  0  0  0  0  0  0
  1  2  1  0  0  0  0
  1  9  1  0  0  0  0
  2  3  1  0  0  0  0
  3  4  1  0  0  0  0
  3  8  1  0  0  0  0
  4  5  1  0  0  0  0
  5  6  1  0  0  0  0
  6  7  1  0  0  0  0
  7  8  1  0  0  0  0
  9 10  1  0  0  0  0
 10 11  1  0  0  0  0
 10 23  1  0  0  0  0
 11 12  2  0  0  0  0
 11 16  1  0  0  0  0
 12 13  1  0  0  0  0
 13 14  2  0  0  0  0
 14 15  1  0  0  0  0
 15 16  2  0  0  0  0
 16 17  1  0  0  0  0
 17 18  1  0  0  0  0
 18 19  2  0  0  0  0
 18 23  1  0  0  0  0
 19 20  1  0  0  0  0
 20 21  2  0  0  0  0
 21 22  1  0  0  0  0
 22 23  2  0  0  0  0
M  END
$$$$

 OpenBabel12191814062D

 30 34  0  0  0  0  0  0  0  0999 V2000
    2.1434   -2.8875    0.0000 C   0  0  0  0  0  0  0  0  0  0  0  0
    1.4289   -2.4750    0.0000 S   0  0  0  0  0  0  0  0  0  0  0  0
    1.4289   -1.6500    0.0000 C   0  0  0  0  0  0  0  0  0  0  0  0
    0.7145   -1.2375    0.0000 N   0  0  0  0  0  0  0  0  0  0  0  0
    0.7145   -0.4125    0.0000 C   0  0  0  0  0  0  0  0  0  0  0  0
    1.4289    0.0000    0.0000 N   0  0  0  0  0  0  0  0  0  0  0  0
    2.1434   -0.4125    0.0000 C   0  0  0  0  0  0  0  0  0  0  0  0
    2.8579    0.0000    0.0000 C   0  0  0  0  0  0  0  0  0  0  0  0
    3.5724   -0.4125    0.0000 N   0  0  0  0  0  0  0  0  0  0  0  0
    3.5724   -1.2375    0.0000 C   0  0  0  0  0  0  0  0  0  0  0  0
    2.8579   -1.6500    0.0000 N   0  0  0  0  0  0  0  0  0  0  0  0
    2.1434   -1.2375    0.0000 C   0  0  0  0  0  0  0  0  0  0  0  0
    4.2868   -1.6500    0.0000 N   0  0  0  0  0  0  0  0  0  0  0  0
    5.0013   -1.2375    0.0000 C   0  0  0  0  0  0  0  0  0  0  0  0
    5.7158   -1.6500    0.0000 C   0  0  0  0  0  0  0  0  0  0  0  0
    5.7158   -2.4750    0.0000 N   0  0  0  0  0  0  0  0  0  0  0  0
    5.0013   -2.8875    0.0000 C   0  0  0  0  0  0  0  0  0  0  0  0
    4.2868   -2.4750    0.0000 C   0  0  0  0  0  0  0  0  0  0  0  0
    2.8579    0.8250    0.0000 N   0  0  0  0  0  0  0  0  0  0  0  0
    2.1434    1.2375    0.0000 C   0  0  0  0  0  0  0  0  0  0  0  0
    2.1434    2.0625    0.0000 C   0  0  0  0  0  0  0  0  0  0  0  0
    2.8579    2.4750    0.0000 O   0  0  0  0  0  0  0  0  0  0  0  0
    3.5724    2.0625    0.0000 C   0  0  0  0  0  0  0  0  0  0  0  0
    3.5724    1.2375    0.0000 C   0  0  0  0  0  0  0  0  0  0  0  0
    2.1434   -3.7125    0.0000 C   0  0  0  0  0  0  0  0  0  0  0  0
    2.8579   -4.1250    0.0000 C   0  0  0  0  0  0  0  0  0  0  0  0
    2.8579   -4.9500    0.0000 C   0  0  0  0  0  0  0  0  0  0  0  0
    2.1434   -5.3625    0.0000 C   0  0  0  0  0  0  0  0  0  0  0  0
    1.4289   -4.9500    0.0000 C   0  0  0  0  0  0  0  0  0  0  0  0
    1.4289   -4.1250    0.0000 C   0  0  0  0  0  0  0  0  0  0  0  0
  1  2  1  0  0  0  0
  1 25  1  0  0  0  0
  2  3  1  0  0  0  0
  3  4  2  0  0  0  0
  3 12  1  0  0  0  0
  4  5  1  0  0  0  0
  5  6  2  0  0  0  0
  6  7  1  0  0  0  0
  7  8  2  0  0  0  0
  7 12  1  0  0  0  0
  8  9  1  0  0  0  0
  8 19  1  0  0  0  0
  9 10  2  0  0  0  0
 10 11  1  0  0  0  0
 10 13  1  0  0  0  0
 11 12  2  0  0  0  0
 13 14  1  0  0  0  0
 13 18  1  0  0  0  0
 14 15  1  0  0  0  0
 15 16  1  0  0  0  0
 16 17  1  0  0  0  0
 17 18  1  0  0  0  0
 19 20  1  0  0  0  0
 19 24  1  0  0  0  0
 20 21  1  0  0  0  0
 21 22  1  0  0  0  0
 22 23  1  0  0  0  0
 23 24  1  0  0  0  0
 25 26  2  0  0  0  0
 25 30  1  0  0  0  0
 26 27  1  0  0  0  0
 27 28  2  0  0  0  0
 28 29  1  0  0  0  0
 29 30  2  0  0  0  0
M  END
$$$$

 OpenBabel12191814062D

 29 32  0  0  0  0  0  0  0  0999 V2000
    4.9820   -1.7309    0.0000 C   0  0  0  0  0  0  0  0  0  0  0  0
    5.3945   -1.0164    0.0000 C   0  0  0  0  0  0  0  0  0  0  0  0
    4.9820   -0.3020    0.0000 C   0  0  0  0  0  0  0  0  0  0  0  0
    4.1570   -0.3020    0.0000 C   0  0  0  0  0  0  0  0  0  0  0  0
    3.7445    0.4125    0.0000 C   0  0  0  0  0  0  0  0  0  0  0  0
    2.9195    0.4125    0.0000 N   0  0  0  0  0  0  0  0  0  0  0  0
    2.5070   -0.3020    0.0000 C   0  0  0  0  0  0  0  0  0  0  0  0
    1.6820   -0.3020    0.0000 C   0  0  0  0  0  0  0  0  0  0  0  0
    1.2695    0.4125    0.0000 C   0  0  3  0  0  0  0  0  0  0  0  0
    1.6820    1.1270    0.0000 C   0  0  0  0  0  0  0  0  0  0  0  0
    2.5070    1.1270    0.0000 C   0  0  0  0  0  0  0  0  0  0  0  0
    0.7846   -0.2549    0.0000 N   0  0  0  0  0  0  0  0  0  0  0  0
    0.0000   -0.0000    0.0000 C   0  0  0  0  0  0  0  0  0  0  0  0
   -0.0000    0.8250    0.0000 N   0  0  0  0  0  0  0  0  0  0  0  0
    0.7846    1.0799    0.0000 C   0  0  0  0  0  0  0  0  0  0  0  0
    1.0396    1.8646    0.0000 O   0  0  0  0  0  0  0  0  0  0  0  0
    1.0396   -1.0396    0.0000 C   0  0  0  0  0  0  0  0  0  0  0  0
    1.8465   -1.2111    0.0000 C   0  0  0  0  0  0  0  0  0  0  0  0
    2.1015   -1.9957    0.0000 C   0  0  0  0  0  0  0  0  0  0  0  0
    1.5494   -2.6088    0.0000 C   0  0  0  0  0  0  0  0  0  0  0  0
    0.7425   -2.4373    0.0000 C   0  0  0  0  0  0  0  0  0  0  0  0
    0.4875   -1.6527    0.0000 C   0  0  0  0  0  0  0  0  0  0  0  0
    6.2195   -1.0164    0.0000 C   0  0  0  0  0  0  0  0  0  0  0  0
    6.6320   -0.3020    0.0000 C   0  0  0  0  0  0  0  0  0  0  0  0
    7.4570   -0.3020    0.0000 C   0  0  0  0  0  0  0  0  0  0  0  0
    7.8695   -1.0164    0.0000 C   0  0  0  0  0  0  0  0  0  0  0  0
    8.6945   -1.0164    0.0000 F   0  0  0  0  0  0  0  0  0  0  0  0
    7.4570   -1.7309    0.0000 C   0  0  0  0  0  0  0  0  0  0  0  0
    6.6320   -1.7309    0.0000 C   0  0  0  0  0  0  0  0  0  0  0  0
  1  2  1  0  0  0  0
  2  3  2  0  0  0  0
  2 23  1  0  0  0  0
  3  4  1  0  0  0  0
  4  5  1  0  0  0  0
  5  6  1  0  0  0  0
  6  7  1  0  0  0  0
  6 11  1  0  0  0  0
  7  8  1  0  0  0  0
  8  9  1  0  0  0  0
  9 10  1  0  0  0  0
  9 12  1  0  0  0  0
  9 15  1  0  0  0  0
 10 11  1  0  0  0  0
 12 13  1  0  0  0  0
 12 17  1  0  0  0  0
 13 14  1  0  0  0  0
 14 15  1  0  0  0  0
 15 16  2  0  0  0  0
 17 18  2  0  0  0  0
 17 22  1  0  0  0  0
 18 19  1  0  0  0  0
 19 20  2  0  0  0  0
 20 21  1  0  0  0  0
 21 22  2  0  0  0  0
 23 24  2  0  0  0  0
 23 29  1  0  0  0  0
 24 25  1  0  0  0  0
 25 26  2  0  0  0  0
 26 27  1  0  0  0  0
 26 28  1  0  0  0  0
 28 29  2  0  0  0  0
M  END
$$$$

 OpenBabel12191814062D

 86 86  0  0  0  0  0  0  0  0999 V2000
    6.4719    7.6502    0.0000 C   0  0  0  0  0  0  0  0  0  0  0  0
    6.0131    6.9645    0.0000 C   0  0  0  0  0  0  0  0  0  0  0  0
    5.1899    7.0189    0.0000 C   0  0  0  0  0  0  0  0  0  0  0  0
    4.7312    6.3333    0.0000 C   0  0  0  0  0  0  0  0  0  0  0  0
    5.0956    5.5931    0.0000 C   0  0  3  0  0  0  0  0  0  0  0  0
    5.9188    5.5387    0.0000 C   0  0  0  0  0  0  0  0  0  0  0  0
    4.6369    4.9074    0.0000 C   0  0  0  0  0  0  0  0  0  0  0  0
    3.8137    4.9619    0.0000 O   0  0  0  0  0  0  0  0  0  0  0  0
    5.0013    4.1673    0.0000 C   0  0  3  0  0  0  0  0  0  0  0  0
    5.4601    4.8530    0.0000 N   0  0  0  0  0  0  0  0  0  0  0  0
    5.6003    5.6660    0.0000 C   0  0  0  0  0  0  0  0  0  0  0  0
    6.2833    4.7985    0.0000 C   0  0  0  0  0  0  0  0  0  0  0  0
    6.7420    5.4842    0.0000 O   0  0  0  0  0  0  0  0  0  0  0  0
    6.6477    4.0584    0.0000 C   0  0  3  0  0  0  0  0  0  0  0  0
    7.4709    4.0039    0.0000 C   0  0  0  0  0  0  0  0  0  0  0  0
    7.8353    3.2638    0.0000 C   0  0  0  0  0  0  0  0  0  0  0  0
    7.9297    4.6896    0.0000 C   0  0  0  0  0  0  0  0  0  0  0  0
    6.1889    3.3727    0.0000 N   0  0  0  0  0  0  0  0  0  0  0  0
    5.3657    3.4271    0.0000 C   0  0  0  0  0  0  0  0  0  0  0  0
    6.5534    2.6325    0.0000 C   0  0  0  0  0  0  0  0  0  0  0  0
    7.3766    2.5781    0.0000 O   0  0  0  0  0  0  0  0  0  0  0  0
    6.0946    1.9469    0.0000 C   0  0  3  0  0  0  0  0  0  0  0  0
    6.9178    1.8924    0.0000 C   0  0  0  0  0  0  0  0  0  0  0  0
    7.2822    1.1523    0.0000 C   0  0  0  0  0  0  0  0  0  0  0  0
    8.1054    1.0978    0.0000 C   0  0  0  0  0  0  0  0  0  0  0  0
    6.8235    0.4666    0.0000 C   0  0  0  0  0  0  0  0  0  0  0  0
    6.4590    1.2067    0.0000 N   0  0  0  0  0  0  0  0  0  0  0  0
    7.0930    0.6788    0.0000 C   0  0  0  0  0  0  0  0  0  0  0  0
    6.0003    0.5210    0.0000 C   0  0  0  0  0  0  0  0  0  0  0  0
    5.1771    0.5755    0.0000 O   0  0  0  0  0  0  0  0  0  0  0  0
    6.3647   -0.2191    0.0000 C   0  0  3  0  0  0  0  0  0  0  0  0
    7.1879   -0.2736    0.0000 C   0  0  0  0  0  0  0  0  0  0  0  0
    7.5524   -1.0137    0.0000 C   0  0  0  0  0  0  0  0  0  0  0  0
    8.3756   -1.0682    0.0000 C   0  0  0  0  0  0  0  0  0  0  0  0
    6.8303   -1.9300    0.0000 C   0  0  0  0  0  0  0  0  0  0  0  0
    5.9060   -0.9048    0.0000 N   0  0  0  0  0  0  0  0  0  0  0  0
    5.0828   -0.8503    0.0000 C   0  0  0  0  0  0  0  0  0  0  0  0
    6.2704   -1.6449    0.0000 C   0  0  0  0  0  0  0  0  0  0  0  0
    7.0936   -1.6994    0.0000 O   0  0  0  0  0  0  0  0  0  0  0  0
    5.8116   -2.3306    0.0000 C   0  0  3  0  0  0  0  0  0  0  0  0
    4.9884   -2.2762    0.0000 C   0  0  0  0  0  0  0  0  0  0  0  0
    6.1761   -3.0708    0.0000 N   0  0  0  0  0  0  0  0  0  0  0  0
    5.7173   -3.7564    0.0000 C   0  0  0  0  0  0  0  0  0  0  0  0
    4.8941   -3.7020    0.0000 O   0  0  0  0  0  0  0  0  0  0  0  0
    6.0817   -4.4966    0.0000 C   0  0  3  0  0  0  0  0  0  0  0  0
    6.9049   -4.5510    0.0000 C   0  0  0  0  0  0  0  0  0  0  0  0
    5.6230   -5.1823    0.0000 N   0  0  0  0  0  0  0  0  0  0  0  0
    4.7998   -5.1278    0.0000 C   0  0  0  0  0  0  0  0  0  0  0  0
    4.8317   -5.9522    0.0000 O   0  0  0  0  0  0  0  0  0  0  0  0
    4.4353   -4.3877    0.0000 C   0  0  3  0  0  0  0  0  0  0  0  0
    3.9766   -5.0733    0.0000 C   0  0  0  0  0  0  0  0  0  0  0  0
    4.3410   -5.8135    0.0000 C   0  0  0  0  0  0  0  0  0  0  0  0
    5.1642   -5.8679    0.0000 C   0  0  0  0  0  0  0  0  0  0  0  0
    3.8823   -6.4992    0.0000 C   0  0  0  0  0  0  0  0  0  0  0  0
    3.6121   -4.3332    0.0000 N   0  0  0  0  0  0  0  0  0  0  0  0
    3.1534   -5.0189    0.0000 C   0  0  0  0  0  0  0  0  0  0  0  0
    3.2477   -3.5931    0.0000 C   0  0  0  0  0  0  0  0  0  0  0  0
    2.4245   -3.5386    0.0000 O   0  0  0  0  0  0  0  0  0  0  0  0
    3.7065   -2.9074    0.0000 C   0  0  3  0  0  0  0  0  0  0  0  0
    2.8833   -2.8529    0.0000 C   0  0  0  0  0  0  0  0  0  0  0  0
    2.5188   -2.1128    0.0000 C   0  0  0  0  0  0  0  0  0  0  0  0
    2.1091   -3.1380    0.0000 C   0  0  0  0  0  0  0  0  0  0  0  0
    3.3420   -2.1672    0.0000 N   0  0  0  0  0  0  0  0  0  0  0  0
    2.7081   -1.6393    0.0000 C   0  0  0  0  0  0  0  0  0  0  0  0
    3.8008   -1.4816    0.0000 C   0  0  0  0  0  0  0  0  0  0  0  0
    4.6240   -1.5360    0.0000 O   0  0  0  0  0  0  0  0  0  0  0  0
    3.4364   -0.7414    0.0000 C   0  0  3  0  0  0  0  0  0  0  0  0
    2.6132   -0.6870    0.0000 C   0  0  0  0  0  0  0  0  0  0  0  0
    2.2487    0.0532    0.0000 C   0  0  0  0  0  0  0  0  0  0  0  0
    1.4255    0.1076    0.0000 C   0  0  0  0  0  0  0  0  0  0  0  0
    2.9708    0.9695    0.0000 C   0  0  0  0  0  0  0  0  0  0  0  0
    3.8951   -0.0557    0.0000 N   0  0  0  0  0  0  0  0  0  0  0  0
    4.7183   -0.1102    0.0000 C   0  0  0  0  0  0  0  0  0  0  0  0
    3.5307    0.6844    0.0000 C   0  0  0  0  0  0  0  0  0  0  0  0
    2.7075    0.7389    0.0000 O   0  0  0  0  0  0  0  0  0  0  0  0
    3.9894    1.3701    0.0000 N   0  0  0  0  0  0  0  0  0  0  0  0
    4.8126    1.3156    0.0000 C   0  0  0  0  0  0  0  0  0  0  0  0
    3.6250    2.1102    0.0000 C   0  0  0  0  0  0  0  0  0  0  0  0
    2.8018    2.1647    0.0000 O   0  0  0  0  0  0  0  0  0  0  0  0
    4.0838    2.7959    0.0000 C   0  0  3  0  0  0  0  0  0  0  0  0
    3.7193    3.5361    0.0000 N   0  0  0  0  0  0  0  0  0  0  0  0
    4.1781    4.2217    0.0000 C   0  0  0  0  0  0  0  0  0  0  0  0
    3.4482    4.6063    0.0000 O   0  0  0  0  0  0  0  0  0  0  0  0
    3.2606    2.8504    0.0000 C   0  0  0  0  0  0  0  0  0  0  0  0
    2.8961    3.5905    0.0000 C   0  0  0  0  0  0  0  0  0  0  0  0
    2.4864    2.5653    0.0000 C   0  0  0  0  0  0  0  0  0  0  0  0
  1  2  1  0  0  0  0
  2  3  2  0  0  0  0
  3  4  1  0  0  0  0
  4  5  1  0  0  0  0
  5  6  1  0  0  0  0
  5  7  1  0  0  0  0
  7  8  2  0  0  0  0
  7  9  1  0  0  0  0
  9 10  1  0  0  0  0
  9 82  1  0  0  0  0
 10 11  1  0  0  0  0
 10 12  1  0  0  0  0
 12 13  2  0  0  0  0
 12 14  1  0  0  0  0
 14 15  1  0  0  0  0
 14 18  1  0  0  0  0
 15 16  1  0  0  0  0
 15 17  1  0  0  0  0
 18 19  1  0  0  0  0
 18 20  1  0  0  0  0
 20 21  2  0  0  0  0
 20 22  1  0  0  0  0
 22 23  1  0  0  0  0
 22 27  1  0  0  0  0
 23 24  1  0  0  0  0
 24 25  1  0  0  0  0
 24 26  1  0  0  0  0
 27 28  1  0  0  0  0
 27 29  1  0  0  0  0
 29 30  2  0  0  0  0
 29 31  1  0  0  0  0
 31 32  1  0  0  0  0
 31 36  1  0  0  0  0
 32 33  1  0  0  0  0
 33 34  1  0  0  0  0
 33 35  1  0  0  0  0
 36 37  1  0  0  0  0
 36 38  1  0  0  0  0
 38 39  2  0  0  0  0
 38 40  1  0  0  0  0
 40 41  1  0  0  0  0
 40 42  1  0  0  0  0
 42 43  1  0  0  0  0
 43 44  2  0  0  0  0
 43 45  1  0  0  0  0
 45 46  1  0  0  0  0
 45 47  1  0  0  0  0
 47 48  1  0  0  0  0
 48 49  2  0  0  0  0
 48 50  1  0  0  0  0
 50 51  1  0  0  0  0
 50 55  1  0  0  0  0
 51 52  1  0  0  0  0
 52 53  1  0  0  0  0
 52 54  1  0  0  0  0
 55 56  1  0  0  0  0
 55 57  1  0  0  0  0
 57 58  2  0  0  0  0
 57 59  1  0  0  0  0
 59 60  1  0  0  0  0
 59 63  1  0  0  0  0
 60 61  1  0  0  0  0
 60 62  1  0  0  0  0
 63 64  1  0  0  0  0
 63 65  1  0  0  0  0
 65 66  2  0  0  0  0
 65 67  1  0  0  0  0
 67 68  1  0  0  0  0
 67 72  1  0  0  0  0
 68 69  1  0  0  0  0
 69 70  1  0  0  0  0
 69 71  1  0  0  0  0
 72 73  1  0  0  0  0
 72 74  1  0  0  0  0
 74 75  2  0  0  0  0
 74 76  1  0  0  0  0
 76 77  1  0  0  0  0
 76 78  1  0  0  0  0
 78 79  2  0  0  0  0
 78 80  1  0  0  0  0
 80 81  1  0  0  0  0
 80 84  1  0  0  0  0
 81 82  1  0  0  0  0
 82 83  2  0  0  0  0
 84 85  1  0  0  0  0
 84 86  1  0  0  0  0
M  END
$$$$

 OpenBabel12191814062D

 86 86  0  0  0  0  0  0  0  0999 V2000
   -0.7297    5.5980    0.0000 C   0  0  0  0  0  0  0  0  0  0  0  0
   -0.3516    4.8647    0.0000 C   0  0  0  0  0  0  0  0  0  0  0  0
   -0.7977    4.1707    0.0000 C   0  0  0  0  0  0  0  0  0  0  0  0
   -0.4196    3.4374    0.0000 C   0  0  0  0  0  0  0  0  0  0  0  0
   -0.8657    2.7433    0.0000 C   0  0  3  0  0  0  0  0  0  0  0  0
   -1.6897    2.7826    0.0000 C   0  0  0  0  0  0  0  0  0  0  0  0
   -0.4876    2.0100    0.0000 C   0  0  3  0  0  0  0  0  0  0  0  0
   -0.9337    1.3160    0.0000 O   0  0  0  0  0  0  0  0  0  0  0  0
    0.3364    1.9708    0.0000 C   0  0  3  0  0  0  0  0  0  0  0  0
    0.7145    1.2375    0.0000 N   0  0  0  0  0  0  0  0  0  0  0  0
    1.5061    1.0051    0.0000 C   0  0  0  0  0  0  0  0  0  0  0  0
    0.0000    0.8250    0.0000 C   0  0  0  0  0  0  0  0  0  0  0  0
   -0.8070    0.9965    0.0000 O   0  0  0  0  0  0  0  0  0  0  0  0
    0.0000    0.0000    0.0000 C   0  0  3  0  0  0  0  0  0  0  0  0
   -0.7145   -0.4125    0.0000 C   0  0  0  0  0  0  0  0  0  0  0  0
   -0.7145   -1.2375    0.0000 C   0  0  0  0  0  0  0  0  0  0  0  0
   -1.4289    0.0000    0.0000 C   0  0  0  0  0  0  0  0  0  0  0  0
    0.7145   -0.4125    0.0000 N   0  0  0  0  0  0  0  0  0  0  0  0
    1.5061   -0.1801    0.0000 C   0  0  0  0  0  0  0  0  0  0  0  0
    0.3364   -1.1458    0.0000 C   0  0  0  0  0  0  0  0  0  0  0  0
   -0.4352   -1.4378    0.0000 O   0  0  0  0  0  0  0  0  0  0  0  0
    0.7825   -1.8398    0.0000 C   0  0  3  0  0  0  0  0  0  0  0  0
    0.4044   -2.5731    0.0000 C   0  0  0  0  0  0  0  0  0  0  0  0
   -0.4196   -2.6124    0.0000 C   0  0  0  0  0  0  0  0  0  0  0  0
   -0.7977   -3.3457    0.0000 C   0  0  0  0  0  0  0  0  0  0  0  0
   -0.8657   -1.9183    0.0000 C   0  0  0  0  0  0  0  0  0  0  0  0
    1.6065   -1.8006    0.0000 N   0  0  0  0  0  0  0  0  0  0  0  0
    2.1468   -1.1771    0.0000 C   0  0  0  0  0  0  0  0  0  0  0  0
    1.6849   -2.6218    0.0000 C   0  0  0  0  0  0  0  0  0  0  0  0
    1.0129   -3.1004    0.0000 O   0  0  0  0  0  0  0  0  0  0  0  0
    2.4354   -2.9646    0.0000 C   0  0  3  0  0  0  0  0  0  0  0  0
    2.5138   -3.7858    0.0000 C   0  0  0  0  0  0  0  0  0  0  0  0
    1.8418   -4.2644    0.0000 C   0  0  0  0  0  0  0  0  0  0  0  0
    1.9202   -5.0856    0.0000 C   0  0  0  0  0  0  0  0  0  0  0  0
    1.0913   -3.9216    0.0000 C   0  0  0  0  0  0  0  0  0  0  0  0
    3.1074   -2.4860    0.0000 N   0  0  0  0  0  0  0  0  0  0  0  0
    3.2248   -1.6694    0.0000 C   0  0  0  0  0  0  0  0  0  0  0  0
    3.6174   -3.1345    0.0000 C   0  0  0  0  0  0  0  0  0  0  0  0
    3.3108   -3.9004    0.0000 O   0  0  0  0  0  0  0  0  0  0  0  0
    4.4340   -3.0171    0.0000 C   0  0  3  0  0  0  0  0  0  0  0  0
    4.9440   -3.6656    0.0000 C   0  0  0  0  0  0  0  0  0  0  0  0
    4.7406   -2.2512    0.0000 N   0  0  0  0  0  0  0  0  0  0  0  0
    5.5203   -2.5210    0.0000 C   0  0  0  0  0  0  0  0  0  0  0  0
    5.6764   -3.3311    0.0000 O   0  0  0  0  0  0  0  0  0  0  0  0
    6.1437   -1.9808    0.0000 C   0  0  3  0  0  0  0  0  0  0  0  0
    6.9234   -2.2506    0.0000 C   0  0  0  0  0  0  0  0  0  0  0  0
    5.9876   -1.1707    0.0000 N   0  0  0  0  0  0  0  0  0  0  0  0
    6.7894   -0.9762    0.0000 C   0  0  0  0  0  0  0  0  0  0  0  0
    7.3587   -1.5732    0.0000 O   0  0  0  0  0  0  0  0  0  0  0  0
    7.0218   -0.1846    0.0000 C   0  0  3  0  0  0  0  0  0  0  0  0
    7.8235    0.0099    0.0000 C   0  0  0  0  0  0  0  0  0  0  0  0
    8.3928   -0.5872    0.0000 C   0  0  0  0  0  0  0  0  0  0  0  0
    9.1946   -0.3927    0.0000 C   0  0  0  0  0  0  0  0  0  0  0  0
    8.1604   -1.3787    0.0000 C   0  0  0  0  0  0  0  0  0  0  0  0
    6.4525    0.4125    0.0000 N   0  0  0  0  0  0  0  0  0  0  0  0
    5.6275    0.4125    0.0000 C   0  0  0  0  0  0  0  0  0  0  0  0
    7.0218    1.0096    0.0000 C   0  0  0  0  0  0  0  0  0  0  0  0
    7.8235    0.8151    0.0000 O   0  0  0  0  0  0  0  0  0  0  0  0
    6.7894    1.8012    0.0000 C   0  0  3  0  0  0  0  0  0  0  0  0
    5.9876    1.9957    0.0000 N   0  0  0  0  0  0  0  0  0  0  0  0
    6.1437    2.8058    0.0000 C   0  0  0  0  0  0  0  0  0  0  0  0
    6.9234    3.0756    0.0000 O   0  0  0  0  0  0  0  0  0  0  0  0
    5.5203    3.3460    0.0000 C   0  0  3  0  0  0  0  0  0  0  0  0
    5.6764    4.1561    0.0000 C   0  0  0  0  0  0  0  0  0  0  0  0
    6.4560    4.4259    0.0000 C   0  0  0  0  0  0  0  0  0  0  0  0
    6.6121    5.2360    0.0000 C   0  0  0  0  0  0  0  0  0  0  0  0
    7.0795    3.8857    0.0000 C   0  0  0  0  0  0  0  0  0  0  0  0
    4.7406    3.0762    0.0000 N   0  0  0  0  0  0  0  0  0  0  0  0
    4.3979    2.3257    0.0000 C   0  0  0  0  0  0  0  0  0  0  0  0
    4.4340    3.8421    0.0000 C   0  0  0  0  0  0  0  0  0  0  0  0
    4.9440    4.4906    0.0000 O   0  0  0  0  0  0  0  0  0  0  0  0
    3.6174    3.9595    0.0000 C   0  0  0  0  0  0  0  0  0  0  0  0
    3.1074    3.3110    0.0000 N   0  0  0  0  0  0  0  0  0  0  0  0
    3.2248    2.4944    0.0000 C   0  0  0  0  0  0  0  0  0  0  0  0
    2.4354    3.7896    0.0000 C   0  0  0  0  0  0  0  0  0  0  0  0
    2.5138    4.6108    0.0000 O   0  0  0  0  0  0  0  0  0  0  0  0
    1.6849    3.4468    0.0000 C   0  0  3  0  0  0  0  0  0  0  0  0
    1.6065    2.6256    0.0000 N   0  0  0  0  0  0  0  0  0  0  0  0
    0.7825    2.6648    0.0000 C   0  0  0  0  0  0  0  0  0  0  0  0
    0.4044    3.3981    0.0000 O   0  0  0  0  0  0  0  0  0  0  0  0
    1.0129    3.9254    0.0000 C   0  0  3  0  0  0  0  0  0  0  0  0
    0.1933    3.8313    0.0000 C   0  0  0  0  0  0  0  0  0  0  0  0
    1.0913    4.7466    0.0000 O   0  0  0  0  0  0  0  0  0  0  0  0
    7.3587    2.3982    0.0000 C   0  0  0  0  0  0  0  0  0  0  0  0
    7.3822    3.2229    0.0000 C   0  0  0  0  0  0  0  0  0  0  0  0
    8.1604    2.2037    0.0000 C   0  0  0  0  0  0  0  0  0  0  0  0
  1  2  1  0  0  0  0
  2  3  2  0  0  0  0
  3  4  1  0  0  0  0
  4  5  1  0  0  0  0
  5  6  1  0  0  0  0
  5  7  1  0  0  0  0
  7  8  1  0  0  0  0
  7  9  1  0  0  0  0
  9 10  1  0  0  0  0
  9 79  1  0  0  0  0
 10 11  1  0  0  0  0
 10 12  1  0  0  0  0
 12 13  2  0  0  0  0
 12 14  1  0  0  0  0
 14 15  1  0  0  0  0
 14 18  1  0  0  0  0
 15 16  1  0  0  0  0
 15 17  1  0  0  0  0
 18 19  1  0  0  0  0
 18 20  1  0  0  0  0
 20 21  2  0  0  0  0
 20 22  1  0  0  0  0
 22 23  1  0  0  0  0
 22 27  1  0  0  0  0
 23 24  1  0  0  0  0
 24 25  1  0  0  0  0
 24 26  1  0  0  0  0
 27 28  1  0  0  0  0
 27 29  1  0  0  0  0
 29 30  2  0  0  0  0
 29 31  1  0  0  0  0
 31 32  1  0  0  0  0
 31 36  1  0  0  0  0
 32 33  1  0  0  0  0
 33 34  1  0  0  0  0
 33 35  1  0  0  0  0
 36 37  1  0  0  0  0
 36 38  1  0  0  0  0
 38 39  2  0  0  0  0
 38 40  1  0  0  0  0
 40 41  1  0  0  0  0
 40 42  1  0  0  0  0
 42 43  1  0  0  0  0
 43 44  2  0  0  0  0
 43 45  1  0  0  0  0
 45 46  1  0  0  0  0
 45 47  1  0  0  0  0
 47 48  1  0  0  0  0
 48 49  2  0  0  0  0
 48 50  1  0  0  0  0
 50 51  1  0  0  0  0
 50 55  1  0  0  0  0
 51 52  1  0  0  0  0
 52 53  1  0  0  0  0
 52 54  1  0  0  0  0
 55 56  1  0  0  0  0
 55 57  1  0  0  0  0
 57 58  2  0  0  0  0
 57 59  1  0  0  0  0
 59 60  1  0  0  0  0
 59 84  1  0  0  0  0
 60 61  1  0  0  0  0
 61 62  2  0  0  0  0
 61 63  1  0  0  0  0
 63 64  1  0  0  0  0
 63 68  1  0  0  0  0
 64 65  1  0  0  0  0
 65 66  1  0  0  0  0
 65 67  1  0  0  0  0
 68 69  1  0  0  0  0
 68 70  1  0  0  0  0
 70 71  2  0  0  0  0
 70 72  1  0  0  0  0
 72 73  1  0  0  0  0
 73 74  1  0  0  0  0
 73 75  1  0  0  0  0
 75 76  2  0  0  0  0
 75 77  1  0  0  0  0
 77 78  1  0  0  0  0
 77 81  1  0  0  0  0
 78 79  1  0  0  0  0
 79 80  2  0  0  0  0
 81 82  1  0  0  0  0
 81 83  1  0  0  0  0
 84 85  1  0  0  0  0
 84 86  1  0  0  0  0
M  END
$$$$

 OpenBabel12191814062D

 39 44  0  0  0  0  0  0  0  0999 V2000
    4.8240   -3.2992    0.0000 C   0  0  0  0  0  0  0  0  0  0  0  0
    4.8240   -4.1242    0.0000 C   0  0  0  0  0  0  0  0  0  0  0  0
    4.1096   -4.5367    0.0000 C   0  0  0  0  0  0  0  0  0  0  0  0
    4.1096   -5.3617    0.0000 N   0  0  0  0  0  0  0  0  0  0  0  0
    3.3951   -5.7742    0.0000 C   0  0  0  0  0  0  0  0  0  0  0  0
    3.3951   -6.5992    0.0000 N   0  0  0  0  0  0  0  0  0  0  0  0
    2.6806   -7.0117    0.0000 C   0  0  0  0  0  0  0  0  0  0  0  0
    2.6806   -7.8367    0.0000 N   0  0  0  0  0  0  0  0  0  0  0  0
    3.3951   -8.2492    0.0000 C   0  0  0  0  0  0  0  0  0  0  0  0
    3.3951   -9.0742    0.0000 C   0  0  0  0  0  0  0  0  0  0  0  0
    2.6806   -9.4867    0.0000 C   0  0  0  0  0  0  0  0  0  0  0  0
    1.9661   -9.0742    0.0000 C   0  0  0  0  0  0  0  0  0  0  0  0
    1.9661   -8.2492    0.0000 C   0  0  0  0  0  0  0  0  0  0  0  0
    2.6806  -10.3117    0.0000 N   0  0  0  0  0  0  0  0  0  0  0  0
    3.3951  -10.7242    0.0000 C   0  0  0  0  0  0  0  0  0  0  0  0
    3.3951  -11.5492    0.0000 C   0  0  0  0  0  0  0  0  0  0  0  0
    4.1384  -11.9072    0.0000 C   0  0  0  0  0  0  0  0  0  0  0  0
    4.7431  -11.3460    0.0000 C   0  0  0  0  0  0  0  0  0  0  0  0
    5.5315  -11.5892    0.0000 C   0  0  0  0  0  0  0  0  0  0  0  0
    5.7151  -12.3935    0.0000 C   0  0  0  0  0  0  0  0  0  0  0  0
    5.1103  -12.9547    0.0000 C   0  0  0  0  0  0  0  0  0  0  0  0
    4.3220  -12.7115    0.0000 C   0  0  0  0  0  0  0  0  0  0  0  0
    3.8076  -13.3565    0.0000 C   0  0  0  0  0  0  0  0  0  0  0  0
    2.9826  -13.3565    0.0000 C   0  0  0  0  0  0  0  0  0  0  0  0
    2.4682  -12.7115    0.0000 C   0  0  0  0  0  0  0  0  0  0  0  0
    1.6799  -12.9547    0.0000 C   0  0  0  0  0  0  0  0  0  0  0  0
    1.0751  -12.3935    0.0000 C   0  0  0  0  0  0  0  0  0  0  0  0
    1.2587  -11.5892    0.0000 C   0  0  0  0  0  0  0  0  0  0  0  0
    2.0470  -11.3460    0.0000 C   0  0  0  0  0  0  0  0  0  0  0  0
    2.6518  -11.9072    0.0000 C   0  0  0  0  0  0  0  0  0  0  0  0
    1.9661   -6.5992    0.0000 C   0  0  0  0  0  0  0  0  0  0  0  0
    1.1815   -6.8542    0.0000 N   0  0  0  0  0  0  0  0  0  0  0  0
    0.6966   -6.1867    0.0000 C   0  0  0  0  0  0  0  0  0  0  0  0
    1.1815   -5.5193    0.0000 N   0  0  0  0  0  0  0  0  0  0  0  0
    0.9266   -4.7347    0.0000 C   0  0  0  0  0  0  0  0  0  0  0  0
    0.1196   -4.5631    0.0000 C   0  0  0  0  0  0  0  0  0  0  0  0
   -0.1353   -3.7785    0.0000 C   0  0  0  0  0  0  0  0  0  0  0  0
    1.9661   -5.7742    0.0000 C   0  0  0  0  0  0  0  0  0  0  0  0
    2.6806   -5.3617    0.0000 N   0  0  0  0  0  0  0  0  0  0  0  0
  1  2  2  0  0  0  0
  2  3  1  0  0  0  0
  3  4  1  0  0  0  0
  4  5  1  0  0  0  0
  5  6  2  0  0  0  0
  5 39  1  0  0  0  0
  6  7  1  0  0  0  0
  7  8  1  0  0  0  0
  7 31  2  0  0  0  0
  8  9  1  0  0  0  0
  8 13  1  0  0  0  0
  9 10  1  0  0  0  0
 10 11  1  0  0  0  0
 11 12  1  0  0  0  0
 11 14  1  0  0  0  0
 12 13  1  0  0  0  0
 14 15  1  0  0  0  0
 15 16  1  0  0  0  0
 16 17  1  0  0  0  0
 16 30  1  0  0  0  0
 17 18  2  0  0  0  0
 17 22  1  0  0  0  0
 18 19  1  0  0  0  0
 19 20  2  0  0  0  0
 20 21  1  0  0  0  0
 21 22  2  0  0  0  0
 22 23  1  0  0  0  0
 23 24  1  0  0  0  0
 24 25  1  0  0  0  0
 25 26  2  0  0  0  0
 25 30  1  0  0  0  0
 26 27  1  0  0  0  0
 27 28  2  0  0  0  0
 28 29  1  0  0  0  0
 29 30  2  0  0  0  0
 31 32  1  0  0  0  0
 31 38  1  0  0  0  0
 32 33  2  0  0  0  0
 33 34  1  0  0  0  0
 34 35  1  0  0  0  0
 34 38  1  0  0  0  0
 35 36  1  0  0  0  0
 36 37  2  0  0  0  0
 38 39  2  0  0  0  0
M  END
$$$$

 OpenBabel12191814062D

 39 44  0  0  0  0  0  0  0  0999 V2000
    4.8240   -3.2992    0.0000 C   0  0  0  0  0  0  0  0  0  0  0  0
    4.8240   -4.1242    0.0000 C   0  0  0  0  0  0  0  0  0  0  0  0
    4.1096   -4.5367    0.0000 C   0  0  0  0  0  0  0  0  0  0  0  0
    4.1096   -5.3617    0.0000 N   0  0  0  0  0  0  0  0  0  0  0  0
    3.3951   -5.7742    0.0000 C   0  0  0  0  0  0  0  0  0  0  0  0
    3.3951   -6.5992    0.0000 N   0  0  0  0  0  0  0  0  0  0  0  0
    2.6806   -7.0117    0.0000 C   0  0  0  0  0  0  0  0  0  0  0  0
    2.6806   -7.8367    0.0000 N   0  0  0  0  0  0  0  0  0  0  0  0
    3.3951   -8.2492    0.0000 C   0  0  0  0  0  0  0  0  0  0  0  0
    3.3951   -9.0742    0.0000 C   0  0  0  0  0  0  0  0  0  0  0  0
    2.6806   -9.4867    0.0000 C   0  0  0  0  0  0  0  0  0  0  0  0
    1.9661   -9.0742    0.0000 C   0  0  0  0  0  0  0  0  0  0  0  0
    1.9661   -8.2492    0.0000 C   0  0  0  0  0  0  0  0  0  0  0  0
    2.6806  -10.3117    0.0000 N   0  0  0  0  0  0  0  0  0  0  0  0
    3.3951  -10.7242    0.0000 C   0  0  0  0  0  0  0  0  0  0  0  0
    3.3951  -11.5492    0.0000 C   0  0  3  0  0  0  0  0  0  0  0  0
    4.1384  -11.9072    0.0000 C   0  0  0  0  0  0  0  0  0  0  0  0
    4.7431  -11.3460    0.0000 C   0  0  0  0  0  0  0  0  0  0  0  0
    5.5315  -11.5892    0.0000 C   0  0  0  0  0  0  0  0  0  0  0  0
    5.7151  -12.3935    0.0000 C   0  0  0  0  0  0  0  0  0  0  0  0
    5.1103  -12.9547    0.0000 C   0  0  0  0  0  0  0  0  0  0  0  0
    4.3220  -12.7115    0.0000 C   0  0  0  0  0  0  0  0  0  0  0  0
    3.8076  -13.3565    0.0000 C   0  0  0  0  0  0  0  0  0  0  0  0
    2.9826  -13.3565    0.0000 O   0  0  0  0  0  0  0  0  0  0  0  0
    2.4682  -12.7115    0.0000 C   0  0  0  0  0  0  0  0  0  0  0  0
    1.6799  -12.9547    0.0000 C   0  0  0  0  0  0  0  0  0  0  0  0
    1.0751  -12.3935    0.0000 C   0  0  0  0  0  0  0  0  0  0  0  0
    1.2587  -11.5892    0.0000 C   0  0  0  0  0  0  0  0  0  0  0  0
    2.0470  -11.3460    0.0000 C   0  0  0  0  0  0  0  0  0  0  0  0
    2.6518  -11.9072    0.0000 C   0  0  0  0  0  0  0  0  0  0  0  0
    1.9661   -6.5992    0.0000 C   0  0  0  0  0  0  0  0  0  0  0  0
    1.1815   -6.8542    0.0000 N   0  0  0  0  0  0  0  0  0  0  0  0
    0.6966   -6.1867    0.0000 C   0  0  0  0  0  0  0  0  0  0  0  0
    1.1815   -5.5193    0.0000 N   0  0  0  0  0  0  0  0  0  0  0  0
    0.9266   -4.7347    0.0000 C   0  0  0  0  0  0  0  0  0  0  0  0
    0.1196   -4.5631    0.0000 C   0  0  0  0  0  0  0  0  0  0  0  0
   -0.1353   -3.7785    0.0000 C   0  0  0  0  0  0  0  0  0  0  0  0
    1.9661   -5.7742    0.0000 C   0  0  0  0  0  0  0  0  0  0  0  0
    2.6806   -5.3617    0.0000 N   0  0  0  0  0  0  0  0  0  0  0  0
  1  2  2  0  0  0  0
  2  3  1  0  0  0  0
  3  4  1  0  0  0  0
  4  5  1  0  0  0  0
  5  6  2  0  0  0  0
  5 39  1  0  0  0  0
  6  7  1  0  0  0  0
  7  8  1  0  0  0  0
  7 31  2  0  0  0  0
  8  9  1  0  0  0  0
  8 13  1  0  0  0  0
  9 10  1  0  0  0  0
 10 11  1  0  0  0  0
 11 12  1  0  0  0  0
 11 14  1  0  0  0  0
 12 13  1  0  0  0  0
 14 15  1  0  0  0  0
 15 16  1  0  0  0  0
 16 17  1  0  0  0  0
 16 30  1  0  0  0  0
 17 18  2  0  0  0  0
 17 22  1  0  0  0  0
 18 19  1  0  0  0  0
 19 20  2  0  0  0  0
 20 21  1  0  0  0  0
 21 22  2  0  0  0  0
 22 23  1  0  0  0  0
 23 24  1  0  0  0  0
 24 25  1  0  0  0  0
 25 26  2  0  0  0  0
 25 30  1  0  0  0  0
 26 27  1  0  0  0  0
 27 28  2  0  0  0  0
 28 29  1  0  0  0  0
 29 30  2  0  0  0  0
 31 32  1  0  0  0  0
 31 38  1  0  0  0  0
 32 33  2  0  0  0  0
 33 34  1  0  0  0  0
 34 35  1  0  0  0  0
 34 38  1  0  0  0  0
 35 36  1  0  0  0  0
 36 37  2  0  0  0  0
 38 39  2  0  0  0  0
M  END
$$$$

 OpenBabel12191814062D

 39 44  0  0  0  0  0  0  0  0999 V2000
    5.2326    8.5820    0.0000 C   0  0  0  0  0  0  0  0  0  0  0  0
    5.2326    7.7570    0.0000 C   0  0  0  0  0  0  0  0  0  0  0  0
    4.5181    7.3445    0.0000 C   0  0  0  0  0  0  0  0  0  0  0  0
    4.5181    6.5195    0.0000 N   0  0  0  0  0  0  0  0  0  0  0  0
    3.8037    6.1070    0.0000 C   0  0  0  0  0  0  0  0  0  0  0  0
    3.8037    5.2820    0.0000 N   0  0  0  0  0  0  0  0  0  0  0  0
    3.0892    4.8695    0.0000 C   0  0  0  0  0  0  0  0  0  0  0  0
    2.3747    5.2820    0.0000 N   0  0  0  0  0  0  0  0  0  0  0  0
    2.3747    6.1070    0.0000 C   0  0  0  0  0  0  0  0  0  0  0  0
    1.7616    6.6590    0.0000 N   0  0  0  0  0  0  0  0  0  0  0  0
    0.9547    6.4875    0.0000 C   0  0  0  0  0  0  0  0  0  0  0  0
    0.6997    5.7029    0.0000 C   0  0  0  0  0  0  0  0  0  0  0  0
   -0.1073    5.5313    0.0000 C   0  0  0  0  0  0  0  0  0  0  0  0
    2.0972    7.4127    0.0000 C   0  0  0  0  0  0  0  0  0  0  0  0
    2.9177    7.3265    0.0000 C   0  0  0  0  0  0  0  0  0  0  0  0
    3.0892    6.5195    0.0000 C   0  0  0  0  0  0  0  0  0  0  0  0
    3.0892    4.0445    0.0000 N   0  0  0  0  0  0  0  0  0  0  0  0
    3.8037    3.6320    0.0000 C   0  0  0  0  0  0  0  0  0  0  0  0
    3.8037    2.8070    0.0000 C   0  0  0  0  0  0  0  0  0  0  0  0
    3.0892    2.3945    0.0000 C   0  0  0  0  0  0  0  0  0  0  0  0
    2.3747    2.8070    0.0000 C   0  0  0  0  0  0  0  0  0  0  0  0
    2.3747    3.6320    0.0000 C   0  0  0  0  0  0  0  0  0  0  0  0
    3.0892    1.5695    0.0000 N   0  0  0  0  0  0  0  0  0  0  0  0
    3.8037    1.1570    0.0000 C   0  0  0  0  0  0  0  0  0  0  0  0
    3.8037    0.3320    0.0000 C   0  0  0  0  0  0  0  0  0  0  0  0
    4.5470   -0.0260    0.0000 C   0  0  0  0  0  0  0  0  0  0  0  0
    5.1517    0.5352    0.0000 C   0  0  0  0  0  0  0  0  0  0  0  0
    5.9401    0.2920    0.0000 C   0  0  0  0  0  0  0  0  0  0  0  0
    6.1237   -0.5123    0.0000 C   0  0  0  0  0  0  0  0  0  0  0  0
    5.5189   -1.0735    0.0000 C   0  0  0  0  0  0  0  0  0  0  0  0
    4.7305   -0.8303    0.0000 C   0  0  0  0  0  0  0  0  0  0  0  0
    4.2162   -1.4753    0.0000 C   0  0  0  0  0  0  0  0  0  0  0  0
    3.3912   -1.4753    0.0000 C   0  0  0  0  0  0  0  0  0  0  0  0
    2.8768   -0.8303    0.0000 C   0  0  0  0  0  0  0  0  0  0  0  0
    2.0884   -1.0735    0.0000 C   0  0  0  0  0  0  0  0  0  0  0  0
    1.4837   -0.5123    0.0000 C   0  0  0  0  0  0  0  0  0  0  0  0
    1.6673    0.2920    0.0000 C   0  0  0  0  0  0  0  0  0  0  0  0
    2.4556    0.5352    0.0000 C   0  0  0  0  0  0  0  0  0  0  0  0
    3.0604   -0.0260    0.0000 C   0  0  0  0  0  0  0  0  0  0  0  0
  1  2  2  0  0  0  0
  2  3  1  0  0  0  0
  3  4  1  0  0  0  0
  4  5  1  0  0  0  0
  5  6  2  0  0  0  0
  5 16  1  0  0  0  0
  6  7  1  0  0  0  0
  7  8  2  0  0  0  0
  7 17  1  0  0  0  0
  8  9  1  0  0  0  0
  9 10  1  0  0  0  0
  9 16  2  0  0  0  0
 10 11  1  0  0  0  0
 10 14  1  0  0  0  0
 11 12  1  0  0  0  0
 12 13  2  0  0  0  0
 14 15  2  0  0  0  0
 15 16  1  0  0  0  0
 17 18  1  0  0  0  0
 17 22  1  0  0  0  0
 18 19  1  0  0  0  0
 19 20  1  0  0  0  0
 20 21  1  0  0  0  0
 20 23  1  0  0  0  0
 21 22  1  0  0  0  0
 23 24  1  0  0  0  0
 24 25  1  0  0  0  0
 25 26  1  0  0  0  0
 25 39  1  0  0  0  0
 26 27  2  0  0  0  0
 26 31  1  0  0  0  0
 27 28  1  0  0  0  0
 28 29  2  0  0  0  0
 29 30  1  0  0  0  0
 30 31  2  0  0  0  0
 31 32  1  0  0  0  0
 32 33  1  0  0  0  0
 33 34  1  0  0  0  0
 34 35  2  0  0  0  0
 34 39  1  0  0  0  0
 35 36  1  0  0  0  0
 36 37  2  0  0  0  0
 37 38  1  0  0  0  0
 38 39  2  0  0  0  0
M  END
$$$$

 OpenBabel12191814062D

 37 41  0  0  0  0  0  0  0  0999 V2000
    1.8500    3.7125    0.0000 C   0  0  0  0  0  0  0  0  0  0  0  0
    2.5645    3.3000    0.0000 C   0  0  0  0  0  0  0  0  0  0  0  0
    2.5645    2.4750    0.0000 C   0  0  0  0  0  0  0  0  0  0  0  0
    3.2789    2.0625    0.0000 N   0  0  0  0  0  0  0  0  0  0  0  0
    3.2789    1.2375    0.0000 C   0  0  0  0  0  0  0  0  0  0  0  0
    3.9934    0.8250    0.0000 N   0  0  0  0  0  0  0  0  0  0  0  0
    3.9934    0.0000    0.0000 C   0  0  0  0  0  0  0  0  0  0  0  0
    3.2789   -0.4125    0.0000 N   0  0  0  0  0  0  0  0  0  0  0  0
    2.5645    0.0000    0.0000 C   0  0  0  0  0  0  0  0  0  0  0  0
    1.7798   -0.2549    0.0000 N   0  0  0  0  0  0  0  0  0  0  0  0
    1.5249   -1.0396    0.0000 C   0  0  0  0  0  0  0  0  0  0  0  0
    2.0769   -1.6527    0.0000 C   0  0  0  0  0  0  0  0  0  0  0  0
    1.8220   -2.4373    0.0000 C   0  0  0  0  0  0  0  0  0  0  0  0
    1.2949    0.4125    0.0000 C   0  0  0  0  0  0  0  0  0  0  0  0
    1.7798    1.0799    0.0000 N   0  0  0  0  0  0  0  0  0  0  0  0
    2.5645    0.8250    0.0000 C   0  0  0  0  0  0  0  0  0  0  0  0
    4.7079   -0.4125    0.0000 N   0  0  0  0  0  0  0  0  0  0  0  0
    5.4223   -0.0000    0.0000 C   0  0  0  0  0  0  0  0  0  0  0  0
    6.1368   -0.4125    0.0000 C   0  0  0  0  0  0  0  0  0  0  0  0
    6.1368   -1.2375    0.0000 C   0  0  0  0  0  0  0  0  0  0  0  0
    5.4223   -1.6500    0.0000 C   0  0  0  0  0  0  0  0  0  0  0  0
    4.7079   -1.2375    0.0000 C   0  0  0  0  0  0  0  0  0  0  0  0
    6.8513   -1.6500    0.0000 N   0  0  0  0  0  0  0  0  0  0  0  0
    6.8513   -2.4750    0.0000 C   0  0  0  0  0  0  0  0  0  0  0  0
    7.5658   -2.8875    0.0000 C   0  0  0  0  0  0  0  0  0  0  0  0
    7.5658   -3.7125    0.0000 C   0  0  0  0  0  0  0  0  0  0  0  0
    8.2802   -4.1250    0.0000 C   0  0  0  0  0  0  0  0  0  0  0  0
    8.2802   -4.9500    0.0000 C   0  0  0  0  0  0  0  0  0  0  0  0
    7.5658   -5.3625    0.0000 C   0  0  0  0  0  0  0  0  0  0  0  0
    6.8513   -4.9500    0.0000 C   0  0  0  0  0  0  0  0  0  0  0  0
    6.8513   -4.1250    0.0000 C   0  0  0  0  0  0  0  0  0  0  0  0
    8.2802   -2.4750    0.0000 C   0  0  0  0  0  0  0  0  0  0  0  0
    8.2802   -1.6500    0.0000 C   0  0  0  0  0  0  0  0  0  0  0  0
    8.9947   -1.2375    0.0000 C   0  0  0  0  0  0  0  0  0  0  0  0
    9.7092   -1.6500    0.0000 C   0  0  0  0  0  0  0  0  0  0  0  0
    9.7092   -2.4750    0.0000 C   0  0  0  0  0  0  0  0  0  0  0  0
    8.9947   -2.8875    0.0000 C   0  0  0  0  0  0  0  0  0  0  0  0
  1  2  2  0  0  0  0
  2  3  1  0  0  0  0
  3  4  1  0  0  0  0
  4  5  1  0  0  0  0
  5  6  2  0  0  0  0
  5 16  1  0  0  0  0
  6  7  1  0  0  0  0
  7  8  2  0  0  0  0
  7 17  1  0  0  0  0
  8  9  1  0  0  0  0
  9 10  1  0  0  0  0
  9 16  2  0  0  0  0
 10 11  1  0  0  0  0
 10 14  1  0  0  0  0
 11 12  1  0  0  0  0
 12 13  2  0  0  0  0
 14 15  2  0  0  0  0
 15 16  1  0  0  0  0
 17 18  1  0  0  0  0
 17 22  1  0  0  0  0
 18 19  1  0  0  0  0
 19 20  1  0  0  0  0
 20 21  1  0  0  0  0
 20 23  1  0  0  0  0
 21 22  1  0  0  0  0
 23 24  1  0  0  0  0
 24 25  1  0  0  0  0
 25 26  1  0  0  0  0
 25 32  1  0  0  0  0
 26 27  2  0  0  0  0
 26 31  1  0  0  0  0
 27 28  1  0  0  0  0
 28 29  2  0  0  0  0
 29 30  1  0  0  0  0
 30 31  2  0  0  0  0
 32 33  2  0  0  0  0
 32 37  1  0  0  0  0
 33 34  1  0  0  0  0
 34 35  2  0  0  0  0
 35 36  1  0  0  0  0
 36 37  2  0  0  0  0
M  END
$$$$

 OpenBabel12191814062D

 39 44  0  0  0  0  0  0  0  0999 V2000
    5.2326    8.5820    0.0000 C   0  0  0  0  0  0  0  0  0  0  0  0
    5.2326    7.7570    0.0000 C   0  0  0  0  0  0  0  0  0  0  0  0
    4.5181    7.3445    0.0000 C   0  0  0  0  0  0  0  0  0  0  0  0
    4.5181    6.5195    0.0000 N   0  0  0  0  0  0  0  0  0  0  0  0
    3.8037    6.1070    0.0000 C   0  0  0  0  0  0  0  0  0  0  0  0
    3.8037    5.2820    0.0000 N   0  0  0  0  0  0  0  0  0  0  0  0
    3.0892    4.8695    0.0000 C   0  0  0  0  0  0  0  0  0  0  0  0
    2.3747    5.2820    0.0000 N   0  0  0  0  0  0  0  0  0  0  0  0
    2.3747    6.1070    0.0000 C   0  0  0  0  0  0  0  0  0  0  0  0
    1.7616    6.6590    0.0000 N   0  0  0  0  0  0  0  0  0  0  0  0
    0.9547    6.4875    0.0000 C   0  0  0  0  0  0  0  0  0  0  0  0
    0.6997    5.7029    0.0000 C   0  0  0  0  0  0  0  0  0  0  0  0
   -0.1073    5.5313    0.0000 C   0  0  0  0  0  0  0  0  0  0  0  0
    2.0972    7.4127    0.0000 C   0  0  0  0  0  0  0  0  0  0  0  0
    2.9177    7.3265    0.0000 N   0  0  0  0  0  0  0  0  0  0  0  0
    3.0892    6.5195    0.0000 C   0  0  0  0  0  0  0  0  0  0  0  0
    3.0892    4.0445    0.0000 N   0  0  0  0  0  0  0  0  0  0  0  0
    3.8037    3.6320    0.0000 C   0  0  0  0  0  0  0  0  0  0  0  0
    3.8037    2.8070    0.0000 C   0  0  0  0  0  0  0  0  0  0  0  0
    3.0892    2.3945    0.0000 C   0  0  0  0  0  0  0  0  0  0  0  0
    2.3747    2.8070    0.0000 C   0  0  0  0  0  0  0  0  0  0  0  0
    2.3747    3.6320    0.0000 C   0  0  0  0  0  0  0  0  0  0  0  0
    3.0892    1.5695    0.0000 N   0  0  0  0  0  0  0  0  0  0  0  0
    3.8037    1.1570    0.0000 C   0  0  0  0  0  0  0  0  0  0  0  0
    3.8037    0.3320    0.0000 C   0  0  0  0  0  0  0  0  0  0  0  0
    4.5470   -0.0260    0.0000 C   0  0  0  0  0  0  0  0  0  0  0  0
    5.1517    0.5352    0.0000 C   0  0  0  0  0  0  0  0  0  0  0  0
    5.9401    0.2920    0.0000 C   0  0  0  0  0  0  0  0  0  0  0  0
    6.1237   -0.5123    0.0000 C   0  0  0  0  0  0  0  0  0  0  0  0
    5.5189   -1.0735    0.0000 C   0  0  0  0  0  0  0  0  0  0  0  0
    4.7305   -0.8303    0.0000 C   0  0  0  0  0  0  0  0  0  0  0  0
    4.2162   -1.4753    0.0000 C   0  0  0  0  0  0  0  0  0  0  0  0
    3.3912   -1.4753    0.0000 C   0  0  0  0  0  0  0  0  0  0  0  0
    2.8768   -0.8303    0.0000 C   0  0  0  0  0  0  0  0  0  0  0  0
    2.0884   -1.0735    0.0000 C   0  0  0  0  0  0  0  0  0  0  0  0
    1.4837   -0.5123    0.0000 C   0  0  0  0  0  0  0  0  0  0  0  0
    1.6673    0.2920    0.0000 C   0  0  0  0  0  0  0  0  0  0  0  0
    2.4556    0.5352    0.0000 C   0  0  0  0  0  0  0  0  0  0  0  0
    3.0604   -0.0260    0.0000 C   0  0  0  0  0  0  0  0  0  0  0  0
  1  2  2  0  0  0  0
  2  3  1  0  0  0  0
  3  4  1  0  0  0  0
  4  5  1  0  0  0  0
  5  6  2  0  0  0  0
  5 16  1  0  0  0  0
  6  7  1  0  0  0  0
  7  8  2  0  0  0  0
  7 17  1  0  0  0  0
  8  9  1  0  0  0  0
  9 10  1  0  0  0  0
  9 16  2  0  0  0  0
 10 11  1  0  0  0  0
 10 14  1  0  0  0  0
 11 12  1  0  0  0  0
 12 13  2  0  0  0  0
 14 15  2  0  0  0  0
 15 16  1  0  0  0  0
 17 18  1  0  0  0  0
 17 22  1  0  0  0  0
 18 19  1  0  0  0  0
 19 20  1  0  0  0  0
 20 21  1  0  0  0  0
 20 23  1  0  0  0  0
 21 22  1  0  0  0  0
 23 24  1  0  0  0  0
 24 25  1  0  0  0  0
 25 26  1  0  0  0  0
 25 39  1  0  0  0  0
 26 27  2  0  0  0  0
 26 31  1  0  0  0  0
 27 28  1  0  0  0  0
 28 29  2  0  0  0  0
 29 30  1  0  0  0  0
 30 31  2  0  0  0  0
 31 32  1  0  0  0  0
 32 33  1  0  0  0  0
 33 34  1  0  0  0  0
 34 35  2  0  0  0  0
 34 39  1  0  0  0  0
 35 36  1  0  0  0  0
 36 37  2  0  0  0  0
 37 38  1  0  0  0  0
 38 39  2  0  0  0  0
M  END
$$$$

 OpenBabel12191814062D

 39 44  0  0  0  0  0  0  0  0999 V2000
    5.2326    8.5820    0.0000 C   0  0  0  0  0  0  0  0  0  0  0  0
    5.2326    7.7570    0.0000 C   0  0  0  0  0  0  0  0  0  0  0  0
    4.5181    7.3445    0.0000 C   0  0  0  0  0  0  0  0  0  0  0  0
    4.5181    6.5195    0.0000 N   0  0  0  0  0  0  0  0  0  0  0  0
    3.8037    6.1070    0.0000 C   0  0  0  0  0  0  0  0  0  0  0  0
    3.8037    5.2820    0.0000 N   0  0  0  0  0  0  0  0  0  0  0  0
    3.0892    4.8695    0.0000 C   0  0  0  0  0  0  0  0  0  0  0  0
    2.3747    5.2820    0.0000 N   0  0  0  0  0  0  0  0  0  0  0  0
    2.3747    6.1070    0.0000 C   0  0  0  0  0  0  0  0  0  0  0  0
    1.7616    6.6590    0.0000 N   0  0  0  0  0  0  0  0  0  0  0  0
    0.9547    6.4875    0.0000 C   0  0  0  0  0  0  0  0  0  0  0  0
    0.6997    5.7029    0.0000 C   0  0  0  0  0  0  0  0  0  0  0  0
   -0.1073    5.5313    0.0000 C   0  0  0  0  0  0  0  0  0  0  0  0
    2.0972    7.4127    0.0000 C   0  0  0  0  0  0  0  0  0  0  0  0
    2.9177    7.3265    0.0000 N   0  0  0  0  0  0  0  0  0  0  0  0
    3.0892    6.5195    0.0000 C   0  0  0  0  0  0  0  0  0  0  0  0
    3.0892    4.0445    0.0000 N   0  0  0  0  0  0  0  0  0  0  0  0
    3.8037    3.6320    0.0000 C   0  0  0  0  0  0  0  0  0  0  0  0
    3.8037    2.8070    0.0000 C   0  0  0  0  0  0  0  0  0  0  0  0
    3.0892    2.3945    0.0000 C   0  0  0  0  0  0  0  0  0  0  0  0
    2.3747    2.8070    0.0000 C   0  0  0  0  0  0  0  0  0  0  0  0
    2.3747    3.6320    0.0000 C   0  0  0  0  0  0  0  0  0  0  0  0
    3.0892    1.5695    0.0000 N   0  0  0  0  0  0  0  0  0  0  0  0
    3.8037    1.1570    0.0000 C   0  0  0  0  0  0  0  0  0  0  0  0
    3.8037    0.3320    0.0000 C   0  0  3  0  0  0  0  0  0  0  0  0
    4.5470   -0.0260    0.0000 C   0  0  0  0  0  0  0  0  0  0  0  0
    5.1517    0.5352    0.0000 C   0  0  0  0  0  0  0  0  0  0  0  0
    5.9401    0.2920    0.0000 C   0  0  0  0  0  0  0  0  0  0  0  0
    6.1237   -0.5123    0.0000 C   0  0  0  0  0  0  0  0  0  0  0  0
    5.5189   -1.0735    0.0000 C   0  0  0  0  0  0  0  0  0  0  0  0
    4.7305   -0.8303    0.0000 C   0  0  0  0  0  0  0  0  0  0  0  0
    4.2162   -1.4753    0.0000 C   0  0  0  0  0  0  0  0  0  0  0  0
    3.3912   -1.4753    0.0000 O   0  0  0  0  0  0  0  0  0  0  0  0
    2.8768   -0.8303    0.0000 C   0  0  0  0  0  0  0  0  0  0  0  0
    2.0884   -1.0735    0.0000 C   0  0  0  0  0  0  0  0  0  0  0  0
    1.4837   -0.5123    0.0000 C   0  0  0  0  0  0  0  0  0  0  0  0
    1.6673    0.2920    0.0000 C   0  0  0  0  0  0  0  0  0  0  0  0
    2.4556    0.5352    0.0000 C   0  0  0  0  0  0  0  0  0  0  0  0
    3.0604   -0.0260    0.0000 C   0  0  0  0  0  0  0  0  0  0  0  0
  1  2  2  0  0  0  0
  2  3  1  0  0  0  0
  3  4  1  0  0  0  0
  4  5  1  0  0  0  0
  5  6  2  0  0  0  0
  5 16  1  0  0  0  0
  6  7  1  0  0  0  0
  7  8  2  0  0  0  0
  7 17  1  0  0  0  0
  8  9  1  0  0  0  0
  9 10  1  0  0  0  0
  9 16  2  0  0  0  0
 10 11  1  0  0  0  0
 10 14  1  0  0  0  0
 11 12  1  0  0  0  0
 12 13  2  0  0  0  0
 14 15  2  0  0  0  0
 15 16  1  0  0  0  0
 17 18  1  0  0  0  0
 17 22  1  0  0  0  0
 18 19  1  0  0  0  0
 19 20  1  0  0  0  0
 20 21  1  0  0  0  0
 20 23  1  0  0  0  0
 21 22  1  0  0  0  0
 23 24  1  0  0  0  0
 24 25  1  0  0  0  0
 25 26  1  0  0  0  0
 25 39  1  0  0  0  0
 26 27  2  0  0  0  0
 26 31  1  0  0  0  0
 27 28  1  0  0  0  0
 28 29  2  0  0  0  0
 29 30  1  0  0  0  0
 30 31  2  0  0  0  0
 31 32  1  0  0  0  0
 32 33  1  0  0  0  0
 33 34  1  0  0  0  0
 34 35  2  0  0  0  0
 34 39  1  0  0  0  0
 35 36  1  0  0  0  0
 36 37  2  0  0  0  0
 37 38  1  0  0  0  0
 38 39  2  0  0  0  0
M  END
$$$$

 OpenBabel12191814062D

 40 45  0  0  0  0  0  0  0  0999 V2000
    5.2326    8.5820    0.0000 C   0  0  0  0  0  0  0  0  0  0  0  0
    5.2326    7.7570    0.0000 C   0  0  0  0  0  0  0  0  0  0  0  0
    4.5181    7.3445    0.0000 C   0  0  0  0  0  0  0  0  0  0  0  0
    4.5181    6.5195    0.0000 N   0  0  0  0  0  0  0  0  0  0  0  0
    3.8037    6.1070    0.0000 C   0  0  0  0  0  0  0  0  0  0  0  0
    3.8037    5.2820    0.0000 N   0  0  0  0  0  0  0  0  0  0  0  0
    3.0892    4.8695    0.0000 C   0  0  0  0  0  0  0  0  0  0  0  0
    2.3747    5.2820    0.0000 N   0  0  0  0  0  0  0  0  0  0  0  0
    2.3747    6.1070    0.0000 C   0  0  0  0  0  0  0  0  0  0  0  0
    1.7616    6.6590    0.0000 N   0  0  0  0  0  0  0  0  0  0  0  0
    0.9547    6.4875    0.0000 C   0  0  0  0  0  0  0  0  0  0  0  0
    0.6997    5.7029    0.0000 C   0  0  0  0  0  0  0  0  0  0  0  0
   -0.1073    5.5313    0.0000 C   0  0  0  0  0  0  0  0  0  0  0  0
    2.0972    7.4127    0.0000 C   0  0  0  0  0  0  0  0  0  0  0  0
    2.9177    7.3265    0.0000 N   0  0  0  0  0  0  0  0  0  0  0  0
    3.0892    6.5195    0.0000 C   0  0  0  0  0  0  0  0  0  0  0  0
    3.0892    4.0445    0.0000 N   0  0  0  0  0  0  0  0  0  0  0  0
    3.8037    3.6320    0.0000 C   0  0  0  0  0  0  0  0  0  0  0  0
    3.8037    2.8070    0.0000 C   0  0  0  0  0  0  0  0  0  0  0  0
    3.0892    2.3945    0.0000 C   0  0  0  0  0  0  0  0  0  0  0  0
    2.3747    2.8070    0.0000 C   0  0  0  0  0  0  0  0  0  0  0  0
    2.3747    3.6320    0.0000 C   0  0  0  0  0  0  0  0  0  0  0  0
    3.0892    1.5695    0.0000 N   0  0  0  0  0  0  0  0  0  0  0  0
    3.8037    1.1570    0.0000 C   0  0  0  0  0  0  0  0  0  0  0  0
    3.8037    0.3320    0.0000 C   0  0  3  0  0  0  0  0  0  0  0  0
    4.5470   -0.0260    0.0000 C   0  0  0  0  0  0  0  0  0  0  0  0
    5.1517    0.5352    0.0000 C   0  0  0  0  0  0  0  0  0  0  0  0
    5.9401    0.2920    0.0000 C   0  0  0  0  0  0  0  0  0  0  0  0
    6.1237   -0.5123    0.0000 C   0  0  0  0  0  0  0  0  0  0  0  0
    5.5189   -1.0735    0.0000 C   0  0  0  0  0  0  0  0  0  0  0  0
    4.7305   -0.8303    0.0000 C   0  0  0  0  0  0  0  0  0  0  0  0
    4.2162   -1.4753    0.0000 N   0  0  0  0  0  0  0  0  0  0  0  0
    3.3912   -1.4753    0.0000 C   0  0  0  0  0  0  0  0  0  0  0  0
    3.0332   -2.2186    0.0000 O   0  0  0  0  0  0  0  0  0  0  0  0
    2.8768   -0.8303    0.0000 C   0  0  0  0  0  0  0  0  0  0  0  0
    2.0884   -1.0735    0.0000 C   0  0  0  0  0  0  0  0  0  0  0  0
    1.4837   -0.5123    0.0000 C   0  0  0  0  0  0  0  0  0  0  0  0
    1.6673    0.2920    0.0000 C   0  0  0  0  0  0  0  0  0  0  0  0
    2.4556    0.5352    0.0000 C   0  0  0  0  0  0  0  0  0  0  0  0
    3.0604   -0.0260    0.0000 C   0  0  0  0  0  0  0  0  0  0  0  0
  1  2  2  0  0  0  0
  2  3  1  0  0  0  0
  3  4  1  0  0  0  0
  4  5  1  0  0  0  0
  5  6  2  0  0  0  0
  5 16  1  0  0  0  0
  6  7  1  0  0  0  0
  7  8  2  0  0  0  0
  7 17  1  0  0  0  0
  8  9  1  0  0  0  0
  9 10  1  0  0  0  0
  9 16  2  0  0  0  0
 10 11  1  0  0  0  0
 10 14  1  0  0  0  0
 11 12  1  0  0  0  0
 12 13  2  0  0  0  0
 14 15  2  0  0  0  0
 15 16  1  0  0  0  0
 17 18  1  0  0  0  0
 17 22  1  0  0  0  0
 18 19  1  0  0  0  0
 19 20  1  0  0  0  0
 20 21  1  0  0  0  0
 20 23  1  0  0  0  0
 21 22  1  0  0  0  0
 23 24  1  0  0  0  0
 24 25  1  0  0  0  0
 25 26  1  0  0  0  0
 25 40  1  0  0  0  0
 26 27  2  0  0  0  0
 26 31  1  0  0  0  0
 27 28  1  0  0  0  0
 28 29  2  0  0  0  0
 29 30  1  0  0  0  0
 30 31  2  0  0  0  0
 31 32  1  0  0  0  0
 32 33  1  0  0  0  0
 33 34  2  0  0  0  0
 33 35  1  0  0  0  0
 35 36  2  0  0  0  0
 35 40  1  0  0  0  0
 36 37  1  0  0  0  0
 37 38  2  0  0  0  0
 38 39  1  0  0  0  0
 39 40  2  0  0  0  0
M  END
$$$$

 OpenBabel12191814062D

 34 38  0  0  0  0  0  0  0  0999 V2000
   -1.4289   -9.9000    0.0000 C   0  0  0  0  0  0  0  0  0  0  0  0
   -1.4289   -9.0750    0.0000 C   0  0  0  0  0  0  0  0  0  0  0  0
   -0.7145   -8.6625    0.0000 C   0  0  0  0  0  0  0  0  0  0  0  0
   -0.7145   -7.8375    0.0000 N   0  0  0  0  0  0  0  0  0  0  0  0
    0.0000   -7.4250    0.0000 C   0  0  0  0  0  0  0  0  0  0  0  0
    0.0000   -6.6000    0.0000 N   0  0  0  0  0  0  0  0  0  0  0  0
    0.7145   -6.1875    0.0000 C   0  0  0  0  0  0  0  0  0  0  0  0
    1.4289   -6.6000    0.0000 N   0  0  0  0  0  0  0  0  0  0  0  0
    1.4289   -7.4250    0.0000 C   0  0  0  0  0  0  0  0  0  0  0  0
    2.0420   -7.9770    0.0000 N   0  0  0  0  0  0  0  0  0  0  0  0
    2.8490   -7.8055    0.0000 C   0  0  0  0  0  0  0  0  0  0  0  0
    3.1039   -7.0209    0.0000 C   0  0  0  0  0  0  0  0  0  0  0  0
    3.9109   -6.8494    0.0000 C   0  0  0  0  0  0  0  0  0  0  0  0
    1.7065   -8.7307    0.0000 C   0  0  0  0  0  0  0  0  0  0  0  0
    0.8860   -8.6445    0.0000 N   0  0  0  0  0  0  0  0  0  0  0  0
    0.7145   -7.8375    0.0000 C   0  0  0  0  0  0  0  0  0  0  0  0
    0.7145   -5.3625    0.0000 N   0  0  0  0  0  0  0  0  0  0  0  0
    0.0000   -4.9500    0.0000 C   0  0  0  0  0  0  0  0  0  0  0  0
    0.0000   -4.1250    0.0000 C   0  0  0  0  0  0  0  0  0  0  0  0
    0.7145   -3.7125    0.0000 C   0  0  0  0  0  0  0  0  0  0  0  0
    1.4289   -4.1250    0.0000 C   0  0  0  0  0  0  0  0  0  0  0  0
    1.4289   -4.9500    0.0000 C   0  0  0  0  0  0  0  0  0  0  0  0
    0.7145   -2.8875    0.0000 N   0  0  0  0  0  0  0  0  0  0  0  0
    1.4289   -2.4750    0.0000 C   0  0  0  0  0  0  0  0  0  0  0  0
    1.4289   -1.6500    0.0000 C   0  0  0  0  0  0  0  0  0  0  0  0
    0.7145   -1.2375    0.0000 C   0  0  0  0  0  0  0  0  0  0  0  0
    0.7145   -0.4125    0.0000 C   0  0  0  0  0  0  0  0  0  0  0  0
    1.4289    0.0000    0.0000 C   0  0  0  0  0  0  0  0  0  0  0  0
    2.1434   -0.4125    0.0000 C   0  0  0  0  0  0  0  0  0  0  0  0
    2.8579    0.0000    0.0000 C   0  0  0  0  0  0  0  0  0  0  0  0
    3.5724   -0.4125    0.0000 C   0  0  0  0  0  0  0  0  0  0  0  0
    3.5724   -1.2375    0.0000 C   0  0  0  0  0  0  0  0  0  0  0  0
    2.8579   -1.6500    0.0000 C   0  0  0  0  0  0  0  0  0  0  0  0
    2.1434   -1.2375    0.0000 C   0  0  0  0  0  0  0  0  0  0  0  0
  1  2  2  0  0  0  0
  2  3  1  0  0  0  0
  3  4  1  0  0  0  0
  4  5  1  0  0  0  0
  5  6  2  0  0  0  0
  5 16  1  0  0  0  0
  6  7  1  0  0  0  0
  7  8  2  0  0  0  0
  7 17  1  0  0  0  0
  8  9  1  0  0  0  0
  9 10  1  0  0  0  0
  9 16  2  0  0  0  0
 10 11  1  0  0  0  0
 10 14  1  0  0  0  0
 11 12  1  0  0  0  0
 12 13  2  0  0  0  0
 14 15  2  0  0  0  0
 15 16  1  0  0  0  0
 17 18  1  0  0  0  0
 17 22  1  0  0  0  0
 18 19  1  0  0  0  0
 19 20  1  0  0  0  0
 20 21  1  0  0  0  0
 20 23  1  0  0  0  0
 21 22  1  0  0  0  0
 23 24  1  0  0  0  0
 24 25  1  0  0  0  0
 25 26  2  0  0  0  0
 25 34  1  0  0  0  0
 26 27  1  0  0  0  0
 27 28  2  0  0  0  0
 28 29  1  0  0  0  0
 29 30  2  0  0  0  0
 29 34  1  0  0  0  0
 30 31  1  0  0  0  0
 31 32  2  0  0  0  0
 32 33  1  0  0  0  0
 33 34  2  0  0  0  0
M  END
$$$$

 OpenBabel12191814062D

 34 37  0  0  0  0  0  0  0  0999 V2000
   -2.1434    3.7125    0.0000 C   0  0  0  0  0  0  0  0  0  0  0  0
   -2.8579    3.3000    0.0000 C   0  0  0  0  0  0  0  0  0  0  0  0
   -2.8579    2.4750    0.0000 C   0  0  0  0  0  0  0  0  0  0  0  0
   -3.5724    2.0625    0.0000 N   0  0  0  0  0  0  0  0  0  0  0  0
   -3.5724    1.2375    0.0000 C   0  0  0  0  0  0  0  0  0  0  0  0
   -2.8579    0.8250    0.0000 N   0  0  0  0  0  0  0  0  0  0  0  0
   -2.8579   -0.0000    0.0000 C   0  0  0  0  0  0  0  0  0  0  0  0
   -2.1434   -0.4125    0.0000 N   0  0  0  0  0  0  0  0  0  0  0  0
   -2.1434   -1.2375    0.0000 C   0  0  0  0  0  0  0  0  0  0  0  0
   -1.4289   -1.6500    0.0000 C   0  0  0  0  0  0  0  0  0  0  0  0
   -1.4289   -2.4750    0.0000 C   0  0  0  0  0  0  0  0  0  0  0  0
   -3.5724   -0.4125    0.0000 N   0  0  0  0  0  0  0  0  0  0  0  0
   -4.2868   -0.0000    0.0000 C   0  0  0  0  0  0  0  0  0  0  0  0
   -4.2868    0.8250    0.0000 N   0  0  0  0  0  0  0  0  0  0  0  0
   -5.0013   -0.4125    0.0000 N   0  0  0  0  0  0  0  0  0  0  0  0
   -5.0013   -1.2375    0.0000 C   0  0  0  0  0  0  0  0  0  0  0  0
   -5.7158   -1.6500    0.0000 C   0  0  0  0  0  0  0  0  0  0  0  0
   -6.4302   -1.2375    0.0000 C   0  0  0  0  0  0  0  0  0  0  0  0
   -6.4302   -0.4125    0.0000 C   0  0  0  0  0  0  0  0  0  0  0  0
   -5.7158   -0.0000    0.0000 C   0  0  0  0  0  0  0  0  0  0  0  0
   -7.1447   -1.6500    0.0000 N   0  0  0  0  0  0  0  0  0  0  0  0
   -7.1447   -2.4750    0.0000 C   0  0  0  0  0  0  0  0  0  0  0  0
   -7.8592   -2.8875    0.0000 C   0  0  0  0  0  0  0  0  0  0  0  0
   -7.8592   -3.7125    0.0000 C   0  0  0  0  0  0  0  0  0  0  0  0
   -8.5737   -4.1250    0.0000 C   0  0  0  0  0  0  0  0  0  0  0  0
   -9.2881   -3.7125    0.0000 C   0  0  0  0  0  0  0  0  0  0  0  0
   -9.2881   -2.8875    0.0000 C   0  0  0  0  0  0  0  0  0  0  0  0
   -8.5737   -2.4750    0.0000 C   0  0  0  0  0  0  0  0  0  0  0  0
   -6.4302   -2.8875    0.0000 C   0  0  0  0  0  0  0  0  0  0  0  0
   -5.7158   -2.4750    0.0000 C   0  0  0  0  0  0  0  0  0  0  0  0
   -5.0013   -2.8875    0.0000 C   0  0  0  0  0  0  0  0  0  0  0  0
   -5.0013   -3.7125    0.0000 C   0  0  0  0  0  0  0  0  0  0  0  0
   -5.7158   -4.1250    0.0000 C   0  0  0  0  0  0  0  0  0  0  0  0
   -6.4302   -3.7125    0.0000 C   0  0  0  0  0  0  0  0  0  0  0  0
  1  2  2  0  0  0  0
  2  3  1  0  0  0  0
  3  4  1  0  0  0  0
  4  5  1  0  0  0  0
  5  6  2  0  0  0  0
  5 14  1  0  0  0  0
  6  7  1  0  0  0  0
  7  8  1  0  0  0  0
  7 12  2  0  0  0  0
  8  9  1  0  0  0  0
  9 10  1  0  0  0  0
 10 11  2  0  0  0  0
 12 13  1  0  0  0  0
 13 14  2  0  0  0  0
 13 15  1  0  0  0  0
 15 16  1  0  0  0  0
 15 20  1  0  0  0  0
 16 17  1  0  0  0  0
 17 18  1  0  0  0  0
 18 19  1  0  0  0  0
 18 21  1  0  0  0  0
 19 20  1  0  0  0  0
 21 22  1  0  0  0  0
 22 23  1  0  0  0  0
 22 29  1  0  0  0  0
 23 24  2  0  0  0  0
 23 28  1  0  0  0  0
 24 25  1  0  0  0  0
 25 26  2  0  0  0  0
 26 27  1  0  0  0  0
 27 28  2  0  0  0  0
 29 30  2  0  0  0  0
 29 34  1  0  0  0  0
 30 31  1  0  0  0  0
 31 32  2  0  0  0  0
 32 33  1  0  0  0  0
 33 34  2  0  0  0  0
M  END
$$$$

 OpenBabel12191814062D

 36 40  0  0  0  0  0  0  0  0999 V2000
   -3.3410    2.8070    0.0000 C   0  0  0  0  0  0  0  0  0  0  0  0
   -2.6266    2.3945    0.0000 C   0  0  0  0  0  0  0  0  0  0  0  0
   -1.9121    2.8070    0.0000 C   0  0  0  0  0  0  0  0  0  0  0  0
   -1.1976    2.3945    0.0000 N   0  0  0  0  0  0  0  0  0  0  0  0
   -0.4832    2.8070    0.0000 C   0  0  0  0  0  0  0  0  0  0  0  0
   -0.4832    3.6320    0.0000 N   0  0  0  0  0  0  0  0  0  0  0  0
    0.2313    4.0445    0.0000 C   0  0  0  0  0  0  0  0  0  0  0  0
    0.2313    4.8695    0.0000 N   0  0  0  0  0  0  0  0  0  0  0  0
    0.9458    5.2820    0.0000 C   0  0  0  0  0  0  0  0  0  0  0  0
    0.9458    6.1070    0.0000 C   0  0  0  0  0  0  0  0  0  0  0  0
    1.6603    6.5195    0.0000 C   0  0  0  0  0  0  0  0  0  0  0  0
    0.9458    3.6320    0.0000 N   0  0  0  0  0  0  0  0  0  0  0  0
    0.9458    2.8070    0.0000 C   0  0  0  0  0  0  0  0  0  0  0  0
    0.2313    2.3945    0.0000 N   0  0  0  0  0  0  0  0  0  0  0  0
    1.6603    2.3945    0.0000 N   0  0  0  0  0  0  0  0  0  0  0  0
    2.3747    2.8070    0.0000 C   0  0  0  0  0  0  0  0  0  0  0  0
    3.0892    2.3945    0.0000 C   0  0  0  0  0  0  0  0  0  0  0  0
    3.0892    1.5695    0.0000 C   0  0  0  0  0  0  0  0  0  0  0  0
    2.3747    1.1570    0.0000 C   0  0  0  0  0  0  0  0  0  0  0  0
    1.6603    1.5695    0.0000 C   0  0  0  0  0  0  0  0  0  0  0  0
    3.8037    1.1570    0.0000 N   0  0  0  0  0  0  0  0  0  0  0  0
    3.8037    0.3320    0.0000 C   0  0  0  0  0  0  0  0  0  0  0  0
    4.5470   -0.0260    0.0000 C   0  0  0  0  0  0  0  0  0  0  0  0
    5.1517    0.5352    0.0000 C   0  0  0  0  0  0  0  0  0  0  0  0
    5.9401    0.2920    0.0000 C   0  0  0  0  0  0  0  0  0  0  0  0
    6.1237   -0.5123    0.0000 C   0  0  0  0  0  0  0  0  0  0  0  0
    5.5189   -1.0735    0.0000 C   0  0  0  0  0  0  0  0  0  0  0  0
    4.7305   -0.8303    0.0000 C   0  0  0  0  0  0  0  0  0  0  0  0
    4.2162   -1.4753    0.0000 C   0  0  0  0  0  0  0  0  0  0  0  0
    3.3912   -1.4753    0.0000 C   0  0  0  0  0  0  0  0  0  0  0  0
    2.8768   -0.8303    0.0000 C   0  0  0  0  0  0  0  0  0  0  0  0
    2.0884   -1.0735    0.0000 C   0  0  0  0  0  0  0  0  0  0  0  0
    1.4837   -0.5123    0.0000 C   0  0  0  0  0  0  0  0  0  0  0  0
    1.6673    0.2920    0.0000 C   0  0  0  0  0  0  0  0  0  0  0  0
    2.4556    0.5352    0.0000 C   0  0  0  0  0  0  0  0  0  0  0  0
    3.0604   -0.0260    0.0000 C   0  0  0  0  0  0  0  0  0  0  0  0
  1  2  2  0  0  0  0
  2  3  1  0  0  0  0
  3  4  1  0  0  0  0
  4  5  1  0  0  0  0
  5  6  2  0  0  0  0
  5 14  1  0  0  0  0
  6  7  1  0  0  0  0
  7  8  1  0  0  0  0
  7 12  2  0  0  0  0
  8  9  1  0  0  0  0
  9 10  1  0  0  0  0
 10 11  2  0  0  0  0
 12 13  1  0  0  0  0
 13 14  2  0  0  0  0
 13 15  1  0  0  0  0
 15 16  1  0  0  0  0
 15 20  1  0  0  0  0
 16 17  1  0  0  0  0
 17 18  1  0  0  0  0
 18 19  1  0  0  0  0
 18 21  1  0  0  0  0
 19 20  1  0  0  0  0
 21 22  1  0  0  0  0
 22 23  1  0  0  0  0
 22 36  1  0  0  0  0
 23 24  2  0  0  0  0
 23 28  1  0  0  0  0
 24 25  1  0  0  0  0
 25 26  2  0  0  0  0
 26 27  1  0  0  0  0
 27 28  2  0  0  0  0
 28 29  1  0  0  0  0
 29 30  1  0  0  0  0
 30 31  1  0  0  0  0
 31 32  2  0  0  0  0
 31 36  1  0  0  0  0
 32 33  1  0  0  0  0
 33 34  2  0  0  0  0
 34 35  1  0  0  0  0
 35 36  2  0  0  0  0
M  END
$$$$

 OpenBabel12191814062D

 35 38  0  0  0  0  0  0  0  0999 V2000
    6.4302   -1.2375    0.0000 C   0  0  0  0  0  0  0  0  0  0  0  0
    5.7158   -1.6500    0.0000 C   0  0  0  0  0  0  0  0  0  0  0  0
    5.7158   -2.4750    0.0000 C   0  0  0  0  0  0  0  0  0  0  0  0
    5.0013   -2.8875    0.0000 N   0  0  0  0  0  0  0  0  0  0  0  0
    5.0013   -3.7125    0.0000 C   0  0  0  0  0  0  0  0  0  0  0  0
    5.7158   -4.1250    0.0000 N   0  0  0  0  0  0  0  0  0  0  0  0
    5.7158   -4.9500    0.0000 C   0  0  0  0  0  0  0  0  0  0  0  0
    6.4302   -5.3625    0.0000 N   0  0  0  0  0  0  0  0  0  0  0  0
    6.4302   -6.1875    0.0000 C   0  0  0  0  0  0  0  0  0  0  0  0
    7.1447   -6.6000    0.0000 C   0  0  0  0  0  0  0  0  0  0  0  0
    7.1447   -7.4250    0.0000 C   0  0  0  0  0  0  0  0  0  0  0  0
    5.0013   -5.3625    0.0000 N   0  0  0  0  0  0  0  0  0  0  0  0
    4.2868   -4.9500    0.0000 C   0  0  0  0  0  0  0  0  0  0  0  0
    4.2868   -4.1250    0.0000 N   0  0  0  0  0  0  0  0  0  0  0  0
    3.5724   -5.3625    0.0000 N   0  0  0  0  0  0  0  0  0  0  0  0
    3.5724   -6.1875    0.0000 C   0  0  0  0  0  0  0  0  0  0  0  0
    2.8579   -6.6000    0.0000 C   0  0  0  0  0  0  0  0  0  0  0  0
    2.1434   -6.1875    0.0000 C   0  0  0  0  0  0  0  0  0  0  0  0
    2.1434   -5.3625    0.0000 C   0  0  0  0  0  0  0  0  0  0  0  0
    2.8579   -4.9500    0.0000 C   0  0  0  0  0  0  0  0  0  0  0  0
    1.4289   -6.6000    0.0000 N   0  0  0  0  0  0  0  0  0  0  0  0
    0.7145   -6.1875    0.0000 C   0  0  0  0  0  0  0  0  0  0  0  0
    0.0000   -6.6000    0.0000 C   0  0  0  0  0  0  0  0  0  0  0  0
    0.0000   -7.4250    0.0000 C   0  0  0  0  0  0  0  0  0  0  0  0
    0.7145   -7.8375    0.0000 C   0  0  0  0  0  0  0  0  0  0  0  0
    0.7145   -8.6625    0.0000 C   0  0  0  0  0  0  0  0  0  0  0  0
   -0.0000   -9.0750    0.0000 C   0  0  0  0  0  0  0  0  0  0  0  0
   -0.7145   -8.6625    0.0000 C   0  0  0  0  0  0  0  0  0  0  0  0
   -0.7145   -7.8375    0.0000 C   0  0  0  0  0  0  0  0  0  0  0  0
   -0.7145   -6.1875    0.0000 C   0  0  0  0  0  0  0  0  0  0  0  0
   -1.4289   -6.6000    0.0000 C   0  0  0  0  0  0  0  0  0  0  0  0
   -2.1434   -6.1875    0.0000 C   0  0  0  0  0  0  0  0  0  0  0  0
   -2.1434   -5.3625    0.0000 C   0  0  0  0  0  0  0  0  0  0  0  0
   -1.4289   -4.9500    0.0000 C   0  0  0  0  0  0  0  0  0  0  0  0
   -0.7145   -5.3625    0.0000 C   0  0  0  0  0  0  0  0  0  0  0  0
  1  2  2  0  0  0  0
  2  3  1  0  0  0  0
  3  4  1  0  0  0  0
  4  5  1  0  0  0  0
  5  6  2  0  0  0  0
  5 14  1  0  0  0  0
  6  7  1  0  0  0  0
  7  8  1  0  0  0  0
  7 12  2  0  0  0  0
  8  9  1  0  0  0  0
  9 10  1  0  0  0  0
 10 11  2  0  0  0  0
 12 13  1  0  0  0  0
 13 14  2  0  0  0  0
 13 15  1  0  0  0  0
 15 16  1  0  0  0  0
 15 20  1  0  0  0  0
 16 17  1  0  0  0  0
 17 18  1  0  0  0  0
 18 19  1  0  0  0  0
 18 21  1  0  0  0  0
 19 20  1  0  0  0  0
 21 22  1  0  0  0  0
 22 23  1  0  0  0  0
 23 24  1  0  0  0  0
 23 30  1  0  0  0  0
 24 25  2  0  0  0  0
 24 29  1  0  0  0  0
 25 26  1  0  0  0  0
 26 27  2  0  0  0  0
 27 28  1  0  0  0  0
 28 29  2  0  0  0  0
 30 31  2  0  0  0  0
 30 35  1  0  0  0  0
 31 32  1  0  0  0  0
 32 33  2  0  0  0  0
 33 34  1  0  0  0  0
 34 35  2  0  0  0  0
M  END
$$$$

 OpenBabel12191814062D

 38 43  0  0  0  0  0  0  0  0999 V2000
    0.0000    8.2500    0.0000 C   0  0  0  0  0  0  0  0  0  0  0  0
    0.0000    7.4250    0.0000 C   0  0  0  0  0  0  0  0  0  0  0  0
    0.7145    7.0125    0.0000 C   0  0  0  0  0  0  0  0  0  0  0  0
    0.7145    6.1875    0.0000 N   0  0  0  0  0  0  0  0  0  0  0  0
    1.4289    5.7750    0.0000 C   0  0  0  0  0  0  0  0  0  0  0  0
    2.1434    6.1875    0.0000 N   0  0  0  0  0  0  0  0  0  0  0  0
    2.8579    5.7750    0.0000 C   0  0  0  0  0  0  0  0  0  0  0  0
    3.5724    6.1875    0.0000 N   0  0  0  0  0  0  0  0  0  0  0  0
    4.2868    5.7750    0.0000 C   0  0  0  0  0  0  0  0  0  0  0  0
    5.0013    6.1875    0.0000 C   0  0  0  0  0  0  0  0  0  0  0  0
    5.7158    5.7750    0.0000 C   0  0  0  0  0  0  0  0  0  0  0  0
    2.8579    4.9500    0.0000 N   0  0  0  0  0  0  0  0  0  0  0  0
    2.1434    4.5375    0.0000 C   0  0  0  0  0  0  0  0  0  0  0  0
    1.4289    4.9500    0.0000 N   0  0  0  0  0  0  0  0  0  0  0  0
    2.1434    3.7125    0.0000 N   0  0  0  0  0  0  0  0  0  0  0  0
    2.8579    3.3000    0.0000 C   0  0  0  0  0  0  0  0  0  0  0  0
    2.8579    2.4750    0.0000 C   0  0  0  0  0  0  0  0  0  0  0  0
    2.1434    2.0625    0.0000 C   0  0  0  0  0  0  0  0  0  0  0  0
    1.4289    2.4750    0.0000 C   0  0  0  0  0  0  0  0  0  0  0  0
    1.4289    3.3000    0.0000 C   0  0  0  0  0  0  0  0  0  0  0  0
    2.1434    1.2375    0.0000 N   0  0  0  0  0  0  0  0  0  0  0  0
    2.8579    0.8250    0.0000 C   0  0  0  0  0  0  0  0  0  0  0  0
    2.8579    0.0000    0.0000 C   0  0  3  0  0  0  0  0  0  0  0  0
    2.9954   -0.5500    0.0000 C   0  0  0  0  0  0  0  0  0  0  0  0
    2.9954   -1.1000    0.0000 C   0  0  0  0  0  0  0  0  0  0  0  0
    2.8579   -1.6500    0.0000 C   0  0  3  0  0  0  0  0  0  0  0  0
    3.5724   -1.2375    0.0000 C   0  0  0  0  0  0  0  0  0  0  0  0
    4.2868   -1.6500    0.0000 C   0  0  0  0  0  0  0  0  0  0  0  0
    5.0013   -1.2375    0.0000 C   0  0  0  0  0  0  0  0  0  0  0  0
    5.0013   -0.4125    0.0000 C   0  0  0  0  0  0  0  0  0  0  0  0
    4.2868    0.0000    0.0000 C   0  0  0  0  0  0  0  0  0  0  0  0
    3.5724   -0.4125    0.0000 C   0  0  0  0  0  0  0  0  0  0  0  0
    2.1434   -1.2375    0.0000 C   0  0  0  0  0  0  0  0  0  0  0  0
    1.4289   -1.6500    0.0000 C   0  0  0  0  0  0  0  0  0  0  0  0
    0.7145   -1.2375    0.0000 C   0  0  0  0  0  0  0  0  0  0  0  0
    0.7145   -0.4125    0.0000 C   0  0  0  0  0  0  0  0  0  0  0  0
    1.4289    0.0000    0.0000 C   0  0  0  0  0  0  0  0  0  0  0  0
    2.1434   -0.4125    0.0000 C   0  0  0  0  0  0  0  0  0  0  0  0
  1  2  2  0  0  0  0
  2  3  1  0  0  0  0
  3  4  1  0  0  0  0
  4  5  1  0  0  0  0
  5  6  2  0  0  0  0
  5 14  1  0  0  0  0
  6  7  1  0  0  0  0
  7  8  1  0  0  0  0
  7 12  2  0  0  0  0
  8  9  1  0  0  0  0
  9 10  1  0  0  0  0
 10 11  2  0  0  0  0
 12 13  1  0  0  0  0
 13 14  2  0  0  0  0
 13 15  1  0  0  0  0
 15 16  1  0  0  0  0
 15 20  1  0  0  0  0
 16 17  1  0  0  0  0
 17 18  1  0  0  0  0
 18 19  1  0  0  0  0
 18 21  1  0  0  0  0
 19 20  1  0  0  0  0
 21 22  1  0  0  0  0
 22 23  1  0  0  0  0
 23 24  1  0  0  0  0
 23 32  1  0  0  0  0
 23 38  1  0  0  0  0
 24 25  1  0  0  0  0
 25 26  1  0  0  0  0
 26 27  1  0  0  0  0
 26 33  1  0  0  0  0
 27 28  2  0  0  0  0
 27 32  1  0  0  0  0
 28 29  1  0  0  0  0
 29 30  2  0  0  0  0
 30 31  1  0  0  0  0
 31 32  2  0  0  0  0
 33 34  2  0  0  0  0
 33 38  1  0  0  0  0
 34 35  1  0  0  0  0
 35 36  2  0  0  0  0
 36 37  1  0  0  0  0
 37 38  2  0  0  0  0
M  END
$$$$

 OpenBabel12191814062D

 37 41  0  0  0  0  0  0  0  0999 V2000
    0.9458    8.5820    0.0000 C   0  0  0  0  0  0  0  0  0  0  0  0
    0.9458    7.7570    0.0000 C   0  0  0  0  0  0  0  0  0  0  0  0
    1.6603    7.3445    0.0000 C   0  0  0  0  0  0  0  0  0  0  0  0
    1.6603    6.5195    0.0000 N   0  0  0  0  0  0  0  0  0  0  0  0
    2.3747    6.1070    0.0000 C   0  0  0  0  0  0  0  0  0  0  0  0
    3.0892    6.5195    0.0000 N   0  0  0  0  0  0  0  0  0  0  0  0
    3.8037    6.1070    0.0000 C   0  0  0  0  0  0  0  0  0  0  0  0
    4.5181    6.5195    0.0000 N   0  0  0  0  0  0  0  0  0  0  0  0
    5.2326    6.1070    0.0000 C   0  0  0  0  0  0  0  0  0  0  0  0
    5.9471    6.5195    0.0000 C   0  0  0  0  0  0  0  0  0  0  0  0
    6.6616    6.1070    0.0000 C   0  0  0  0  0  0  0  0  0  0  0  0
    3.8037    5.2820    0.0000 N   0  0  0  0  0  0  0  0  0  0  0  0
    3.0892    4.8695    0.0000 C   0  0  0  0  0  0  0  0  0  0  0  0
    2.3747    5.2820    0.0000 N   0  0  0  0  0  0  0  0  0  0  0  0
    3.0892    4.0445    0.0000 N   0  0  0  0  0  0  0  0  0  0  0  0
    3.8037    3.6320    0.0000 C   0  0  0  0  0  0  0  0  0  0  0  0
    3.8037    2.8070    0.0000 C   0  0  0  0  0  0  0  0  0  0  0  0
    3.0892    2.3945    0.0000 C   0  0  0  0  0  0  0  0  0  0  0  0
    2.3747    2.8070    0.0000 C   0  0  0  0  0  0  0  0  0  0  0  0
    2.3747    3.6320    0.0000 C   0  0  0  0  0  0  0  0  0  0  0  0
    3.0892    1.5695    0.0000 N   0  0  0  0  0  0  0  0  0  0  0  0
    3.8037    1.1570    0.0000 C   0  0  0  0  0  0  0  0  0  0  0  0
    3.8037    0.3320    0.0000 C   0  0  3  0  0  0  0  0  0  0  0  0
    4.5470   -0.0260    0.0000 C   0  0  0  0  0  0  0  0  0  0  0  0
    5.1517    0.5352    0.0000 C   0  0  0  0  0  0  0  0  0  0  0  0
    5.9401    0.2920    0.0000 C   0  0  0  0  0  0  0  0  0  0  0  0
    6.1237   -0.5123    0.0000 C   0  0  0  0  0  0  0  0  0  0  0  0
    5.5189   -1.0735    0.0000 C   0  0  0  0  0  0  0  0  0  0  0  0
    4.7305   -0.8303    0.0000 C   0  0  0  0  0  0  0  0  0  0  0  0
    4.2162   -1.4753    0.0000 C   0  0  0  0  0  0  0  0  0  0  0  0
    3.3912   -1.4753    0.0000 C   0  0  0  0  0  0  0  0  0  0  0  0
    2.8768   -0.8303    0.0000 C   0  0  0  0  0  0  0  0  0  0  0  0
    2.0884   -1.0735    0.0000 C   0  0  0  0  0  0  0  0  0  0  0  0
    1.4837   -0.5123    0.0000 C   0  0  0  0  0  0  0  0  0  0  0  0
    1.6673    0.2920    0.0000 C   0  0  0  0  0  0  0  0  0  0  0  0
    2.4556    0.5352    0.0000 C   0  0  0  0  0  0  0  0  0  0  0  0
    3.0604   -0.0260    0.0000 C   0  0  0  0  0  0  0  0  0  0  0  0
  1  2  2  0  0  0  0
  2  3  1  0  0  0  0
  3  4  1  0  0  0  0
  4  5  1  0  0  0  0
  5  6  2  0  0  0  0
  5 14  1  0  0  0  0
  6  7  1  0  0  0  0
  7  8  1  0  0  0  0
  7 12  2  0  0  0  0
  8  9  1  0  0  0  0
  9 10  1  0  0  0  0
 10 11  2  0  0  0  0
 12 13  1  0  0  0  0
 13 14  2  0  0  0  0
 13 15  1  0  0  0  0
 15 16  1  0  0  0  0
 15 20  1  0  0  0  0
 16 17  1  0  0  0  0
 17 18  1  0  0  0  0
 18 19  1  0  0  0  0
 18 21  1  0  0  0  0
 19 20  1  0  0  0  0
 21 22  1  0  0  0  0
 22 23  1  0  0  0  0
 23 24  1  0  0  0  0
 23 37  1  0  0  0  0
 24 25  2  0  0  0  0
 24 29  1  0  0  0  0
 25 26  1  0  0  0  0
 26 27  2  0  0  0  0
 27 28  1  0  0  0  0
 28 29  2  0  0  0  0
 29 30  1  0  0  0  0
 30 31  2  0  0  0  0
 31 32  1  0  0  0  0
 32 33  2  0  0  0  0
 32 37  1  0  0  0  0
 33 34  1  0  0  0  0
 34 35  2  0  0  0  0
 35 36  1  0  0  0  0
 36 37  2  0  0  0  0
M  END
$$$$

 OpenBabel12191814062D

 35 39  0  0  0  0  0  0  0  0999 V2000
   -0.9239    9.7605    0.0000 C   0  0  0  0  0  0  0  0  0  0  0  0
   -0.9239    8.9355    0.0000 C   0  0  0  0  0  0  0  0  0  0  0  0
   -0.2095    8.5230    0.0000 C   0  0  0  0  0  0  0  0  0  0  0  0
   -0.2095    7.6980    0.0000 N   0  0  0  0  0  0  0  0  0  0  0  0
    0.5050    7.2855    0.0000 C   0  0  0  0  0  0  0  0  0  0  0  0
    1.2195    7.6980    0.0000 N   0  0  0  0  0  0  0  0  0  0  0  0
    1.9339    7.2855    0.0000 C   0  0  0  0  0  0  0  0  0  0  0  0
    2.6484    7.6980    0.0000 N   0  0  0  0  0  0  0  0  0  0  0  0
    3.3629    7.2855    0.0000 C   0  0  0  0  0  0  0  0  0  0  0  0
    4.0774    7.6980    0.0000 C   0  0  0  0  0  0  0  0  0  0  0  0
    4.7918    7.2855    0.0000 C   0  0  0  0  0  0  0  0  0  0  0  0
    1.9339    6.4605    0.0000 N   0  0  0  0  0  0  0  0  0  0  0  0
    1.2195    6.0480    0.0000 C   0  0  0  0  0  0  0  0  0  0  0  0
    0.5050    6.4605    0.0000 N   0  0  0  0  0  0  0  0  0  0  0  0
    1.2195    5.2230    0.0000 N   0  0  0  0  0  0  0  0  0  0  0  0
    1.9339    4.8105    0.0000 C   0  0  0  0  0  0  0  0  0  0  0  0
    1.9339    3.9855    0.0000 C   0  0  0  0  0  0  0  0  0  0  0  0
    1.2195    3.5730    0.0000 C   0  0  0  0  0  0  0  0  0  0  0  0
    0.5050    3.9855    0.0000 C   0  0  0  0  0  0  0  0  0  0  0  0
    0.5050    4.8105    0.0000 C   0  0  0  0  0  0  0  0  0  0  0  0
    1.2195    2.7480    0.0000 N   0  0  0  0  0  0  0  0  0  0  0  0
    1.9339    2.3355    0.0000 C   0  0  0  0  0  0  0  0  0  0  0  0
    1.9339    1.5105    0.0000 C   0  0  0  0  0  0  0  0  0  0  0  0
    2.6014    1.0256    0.0000 C   0  0  0  0  0  0  0  0  0  0  0  0
    3.4084    1.1971    0.0000 C   0  0  0  0  0  0  0  0  0  0  0  0
    3.9604    0.5840    0.0000 C   0  0  0  0  0  0  0  0  0  0  0  0
    3.7054   -0.2006    0.0000 C   0  0  0  0  0  0  0  0  0  0  0  0
    2.8985   -0.3721    0.0000 C   0  0  0  0  0  0  0  0  0  0  0  0
    2.3464    0.2410    0.0000 C   0  0  0  0  0  0  0  0  0  0  0  0
    1.5214    0.2410    0.0000 C   0  0  0  0  0  0  0  0  0  0  0  0
    0.9694   -0.3721    0.0000 C   0  0  0  0  0  0  0  0  0  0  0  0
    0.1624   -0.2006    0.0000 C   0  0  0  0  0  0  0  0  0  0  0  0
   -0.0925    0.5840    0.0000 C   0  0  0  0  0  0  0  0  0  0  0  0
    0.4595    1.1971    0.0000 C   0  0  0  0  0  0  0  0  0  0  0  0
    1.2665    1.0256    0.0000 C   0  0  0  0  0  0  0  0  0  0  0  0
  1  2  2  0  0  0  0
  2  3  1  0  0  0  0
  3  4  1  0  0  0  0
  4  5  1  0  0  0  0
  5  6  2  0  0  0  0
  5 14  1  0  0  0  0
  6  7  1  0  0  0  0
  7  8  1  0  0  0  0
  7 12  2  0  0  0  0
  8  9  1  0  0  0  0
  9 10  1  0  0  0  0
 10 11  2  0  0  0  0
 12 13  1  0  0  0  0
 13 14  2  0  0  0  0
 13 15  1  0  0  0  0
 15 16  1  0  0  0  0
 15 20  1  0  0  0  0
 16 17  1  0  0  0  0
 17 18  1  0  0  0  0
 18 19  1  0  0  0  0
 18 21  1  0  0  0  0
 19 20  1  0  0  0  0
 21 22  1  0  0  0  0
 22 23  1  0  0  0  0
 23 24  1  0  0  0  0
 23 35  1  0  0  0  0
 24 25  2  0  0  0  0
 24 29  1  0  0  0  0
 25 26  1  0  0  0  0
 26 27  2  0  0  0  0
 27 28  1  0  0  0  0
 28 29  2  0  0  0  0
 29 30  1  0  0  0  0
 30 31  2  0  0  0  0
 30 35  1  0  0  0  0
 31 32  1  0  0  0  0
 32 33  2  0  0  0  0
 33 34  1  0  0  0  0
 34 35  2  0  0  0  0
M  END
$$$$

 OpenBabel12191814062D

 37 41  0  0  0  0  0  0  0  0999 V2000
    0.9458    8.5820    0.0000 C   0  0  0  0  0  0  0  0  0  0  0  0
    0.9458    7.7570    0.0000 C   0  0  0  0  0  0  0  0  0  0  0  0
    1.6603    7.3445    0.0000 C   0  0  0  0  0  0  0  0  0  0  0  0
    1.6603    6.5195    0.0000 N   0  0  0  0  0  0  0  0  0  0  0  0
    2.3747    6.1070    0.0000 C   0  0  0  0  0  0  0  0  0  0  0  0
    3.0892    6.5195    0.0000 N   0  0  0  0  0  0  0  0  0  0  0  0
    3.8037    6.1070    0.0000 C   0  0  0  0  0  0  0  0  0  0  0  0
    4.5181    6.5195    0.0000 N   0  0  0  0  0  0  0  0  0  0  0  0
    5.2326    6.1070    0.0000 C   0  0  0  0  0  0  0  0  0  0  0  0
    5.9471    6.5195    0.0000 C   0  0  0  0  0  0  0  0  0  0  0  0
    6.6616    6.1070    0.0000 C   0  0  0  0  0  0  0  0  0  0  0  0
    3.8037    5.2820    0.0000 N   0  0  0  0  0  0  0  0  0  0  0  0
    3.0892    4.8695    0.0000 C   0  0  0  0  0  0  0  0  0  0  0  0
    2.3747    5.2820    0.0000 N   0  0  0  0  0  0  0  0  0  0  0  0
    3.0892    4.0445    0.0000 N   0  0  0  0  0  0  0  0  0  0  0  0
    3.8037    3.6320    0.0000 C   0  0  0  0  0  0  0  0  0  0  0  0
    3.8037    2.8070    0.0000 C   0  0  0  0  0  0  0  0  0  0  0  0
    3.0892    2.3945    0.0000 C   0  0  0  0  0  0  0  0  0  0  0  0
    2.3747    2.8070    0.0000 C   0  0  0  0  0  0  0  0  0  0  0  0
    2.3747    3.6320    0.0000 C   0  0  0  0  0  0  0  0  0  0  0  0
    3.0892    1.5695    0.0000 N   0  0  0  0  0  0  0  0  0  0  0  0
    3.8037    1.1570    0.0000 C   0  0  0  0  0  0  0  0  0  0  0  0
    3.8037    0.3320    0.0000 C   0  0  0  0  0  0  0  0  0  0  0  0
    4.5470   -0.0260    0.0000 C   0  0  0  0  0  0  0  0  0  0  0  0
    5.1517    0.5352    0.0000 C   0  0  0  0  0  0  0  0  0  0  0  0
    5.9401    0.2920    0.0000 C   0  0  0  0  0  0  0  0  0  0  0  0
    6.1237   -0.5123    0.0000 C   0  0  0  0  0  0  0  0  0  0  0  0
    5.5189   -1.0735    0.0000 C   0  0  0  0  0  0  0  0  0  0  0  0
    4.7305   -0.8303    0.0000 C   0  0  0  0  0  0  0  0  0  0  0  0
    4.2162   -1.4753    0.0000 C   0  0  0  0  0  0  0  0  0  0  0  0
    3.3912   -1.4753    0.0000 C   0  0  0  0  0  0  0  0  0  0  0  0
    2.8768   -0.8303    0.0000 C   0  0  0  0  0  0  0  0  0  0  0  0
    2.0884   -1.0735    0.0000 C   0  0  0  0  0  0  0  0  0  0  0  0
    1.4837   -0.5123    0.0000 C   0  0  0  0  0  0  0  0  0  0  0  0
    1.6673    0.2920    0.0000 C   0  0  0  0  0  0  0  0  0  0  0  0
    2.4556    0.5352    0.0000 C   0  0  0  0  0  0  0  0  0  0  0  0
    3.0604   -0.0260    0.0000 C   0  0  0  0  0  0  0  0  0  0  0  0
  1  2  2  0  0  0  0
  2  3  1  0  0  0  0
  3  4  1  0  0  0  0
  4  5  1  0  0  0  0
  5  6  2  0  0  0  0
  5 14  1  0  0  0  0
  6  7  1  0  0  0  0
  7  8  1  0  0  0  0
  7 12  2  0  0  0  0
  8  9  1  0  0  0  0
  9 10  1  0  0  0  0
 10 11  2  0  0  0  0
 12 13  1  0  0  0  0
 13 14  2  0  0  0  0
 13 15  1  0  0  0  0
 15 16  1  0  0  0  0
 15 20  1  0  0  0  0
 16 17  1  0  0  0  0
 17 18  1  0  0  0  0
 18 19  1  0  0  0  0
 18 21  1  0  0  0  0
 19 20  1  0  0  0  0
 21 22  1  0  0  0  0
 22 23  1  0  0  0  0
 23 24  1  0  0  0  0
 23 37  1  0  0  0  0
 24 25  2  0  0  0  0
 24 29  1  0  0  0  0
 25 26  1  0  0  0  0
 26 27  2  0  0  0  0
 27 28  1  0  0  0  0
 28 29  2  0  0  0  0
 29 30  1  0  0  0  0
 30 31  1  0  0  0  0
 31 32  1  0  0  0  0
 32 33  2  0  0  0  0
 32 37  1  0  0  0  0
 33 34  1  0  0  0  0
 34 35  2  0  0  0  0
 35 36  1  0  0  0  0
 36 37  2  0  0  0  0
M  END
$$$$

 OpenBabel12191814062D

 37 41  0  0  0  0  0  0  0  0999 V2000
    0.9458    8.5820    0.0000 C   0  0  0  0  0  0  0  0  0  0  0  0
    0.9458    7.7570    0.0000 C   0  0  0  0  0  0  0  0  0  0  0  0
    1.6603    7.3445    0.0000 C   0  0  0  0  0  0  0  0  0  0  0  0
    1.6603    6.5195    0.0000 N   0  0  0  0  0  0  0  0  0  0  0  0
    2.3747    6.1070    0.0000 C   0  0  0  0  0  0  0  0  0  0  0  0
    3.0892    6.5195    0.0000 N   0  0  0  0  0  0  0  0  0  0  0  0
    3.8037    6.1070    0.0000 C   0  0  0  0  0  0  0  0  0  0  0  0
    4.5181    6.5195    0.0000 N   0  0  0  0  0  0  0  0  0  0  0  0
    5.2326    6.1070    0.0000 C   0  0  0  0  0  0  0  0  0  0  0  0
    5.9471    6.5195    0.0000 C   0  0  0  0  0  0  0  0  0  0  0  0
    6.6616    6.1070    0.0000 C   0  0  0  0  0  0  0  0  0  0  0  0
    3.8037    5.2820    0.0000 N   0  0  0  0  0  0  0  0  0  0  0  0
    3.0892    4.8695    0.0000 C   0  0  0  0  0  0  0  0  0  0  0  0
    2.3747    5.2820    0.0000 N   0  0  0  0  0  0  0  0  0  0  0  0
    3.0892    4.0445    0.0000 N   0  0  0  0  0  0  0  0  0  0  0  0
    3.8037    3.6320    0.0000 C   0  0  0  0  0  0  0  0  0  0  0  0
    3.8037    2.8070    0.0000 C   0  0  0  0  0  0  0  0  0  0  0  0
    3.0892    2.3945    0.0000 C   0  0  0  0  0  0  0  0  0  0  0  0
    2.3747    2.8070    0.0000 C   0  0  0  0  0  0  0  0  0  0  0  0
    2.3747    3.6320    0.0000 C   0  0  0  0  0  0  0  0  0  0  0  0
    3.0892    1.5695    0.0000 N   0  0  0  0  0  0  0  0  0  0  0  0
    3.8037    1.1570    0.0000 C   0  0  0  0  0  0  0  0  0  0  0  0
    3.8037    0.3320    0.0000 C   0  0  3  0  0  0  0  0  0  0  0  0
    4.5470   -0.0260    0.0000 C   0  0  0  0  0  0  0  0  0  0  0  0
    5.1517    0.5352    0.0000 C   0  0  0  0  0  0  0  0  0  0  0  0
    5.9401    0.2920    0.0000 C   0  0  0  0  0  0  0  0  0  0  0  0
    6.1237   -0.5123    0.0000 C   0  0  0  0  0  0  0  0  0  0  0  0
    5.5189   -1.0735    0.0000 C   0  0  0  0  0  0  0  0  0  0  0  0
    4.7305   -0.8303    0.0000 C   0  0  0  0  0  0  0  0  0  0  0  0
    4.2162   -1.4753    0.0000 C   0  0  0  0  0  0  0  0  0  0  0  0
    3.3912   -1.4753    0.0000 O   0  0  0  0  0  0  0  0  0  0  0  0
    2.8768   -0.8303    0.0000 C   0  0  0  0  0  0  0  0  0  0  0  0
    2.0884   -1.0735    0.0000 C   0  0  0  0  0  0  0  0  0  0  0  0
    1.4837   -0.5123    0.0000 C   0  0  0  0  0  0  0  0  0  0  0  0
    1.6673    0.2920    0.0000 C   0  0  0  0  0  0  0  0  0  0  0  0
    2.4556    0.5352    0.0000 C   0  0  0  0  0  0  0  0  0  0  0  0
    3.0604   -0.0260    0.0000 C   0  0  0  0  0  0  0  0  0  0  0  0
  1  2  2  0  0  0  0
  2  3  1  0  0  0  0
  3  4  1  0  0  0  0
  4  5  1  0  0  0  0
  5  6  2  0  0  0  0
  5 14  1  0  0  0  0
  6  7  1  0  0  0  0
  7  8  1  0  0  0  0
  7 12  2  0  0  0  0
  8  9  1  0  0  0  0
  9 10  1  0  0  0  0
 10 11  2  0  0  0  0
 12 13  1  0  0  0  0
 13 14  2  0  0  0  0
 13 15  1  0  0  0  0
 15 16  1  0  0  0  0
 15 20  1  0  0  0  0
 16 17  1  0  0  0  0
 17 18  1  0  0  0  0
 18 19  1  0  0  0  0
 18 21  1  0  0  0  0
 19 20  1  0  0  0  0
 21 22  1  0  0  0  0
 22 23  1  0  0  0  0
 23 24  1  0  0  0  0
 23 37  1  0  0  0  0
 24 25  2  0  0  0  0
 24 29  1  0  0  0  0
 25 26  1  0  0  0  0
 26 27  2  0  0  0  0
 27 28  1  0  0  0  0
 28 29  2  0  0  0  0
 29 30  1  0  0  0  0
 30 31  1  0  0  0  0
 31 32  1  0  0  0  0
 32 33  2  0  0  0  0
 32 37  1  0  0  0  0
 33 34  1  0  0  0  0
 34 35  2  0  0  0  0
 35 36  1  0  0  0  0
 36 37  2  0  0  0  0
M  END
$$$$

 OpenBabel12191814062D

 36 40  0  0  0  0  0  0  0  0999 V2000
   -0.7145    9.4875    0.0000 C   0  0  0  0  0  0  0  0  0  0  0  0
   -0.7145    8.6625    0.0000 C   0  0  0  0  0  0  0  0  0  0  0  0
   -0.0000    8.2500    0.0000 C   0  0  0  0  0  0  0  0  0  0  0  0
   -0.0000    7.4250    0.0000 N   0  0  0  0  0  0  0  0  0  0  0  0
    0.7145    7.0125    0.0000 C   0  0  0  0  0  0  0  0  0  0  0  0
    1.4289    7.4250    0.0000 N   0  0  0  0  0  0  0  0  0  0  0  0
    2.1434    7.0125    0.0000 C   0  0  0  0  0  0  0  0  0  0  0  0
    2.8579    7.4250    0.0000 N   0  0  0  0  0  0  0  0  0  0  0  0
    3.5724    7.0125    0.0000 C   0  0  0  0  0  0  0  0  0  0  0  0
    4.2868    7.4250    0.0000 C   0  0  0  0  0  0  0  0  0  0  0  0
    5.0013    7.0125    0.0000 C   0  0  0  0  0  0  0  0  0  0  0  0
    2.1434    6.1875    0.0000 N   0  0  0  0  0  0  0  0  0  0  0  0
    1.4289    5.7750    0.0000 C   0  0  0  0  0  0  0  0  0  0  0  0
    0.7145    6.1875    0.0000 N   0  0  0  0  0  0  0  0  0  0  0  0
    1.4289    4.9500    0.0000 N   0  0  0  0  0  0  0  0  0  0  0  0
    2.1434    4.5375    0.0000 C   0  0  0  0  0  0  0  0  0  0  0  0
    2.1434    3.7125    0.0000 C   0  0  0  0  0  0  0  0  0  0  0  0
    1.4289    3.3000    0.0000 C   0  0  0  0  0  0  0  0  0  0  0  0
    0.7145    3.7125    0.0000 C   0  0  0  0  0  0  0  0  0  0  0  0
    0.7145    4.5375    0.0000 C   0  0  0  0  0  0  0  0  0  0  0  0
    1.4289    2.4750    0.0000 N   0  0  0  0  0  0  0  0  0  0  0  0
    2.1434    2.0625    0.0000 C   0  0  0  0  0  0  0  0  0  0  0  0
    2.1434    1.2375    0.0000 C   0  0  0  0  0  0  0  0  0  0  0  0
    2.8579    0.8250    0.0000 C   0  0  0  0  0  0  0  0  0  0  0  0
    3.5724    1.2375    0.0000 C   0  0  0  0  0  0  0  0  0  0  0  0
    4.2868    0.8250    0.0000 C   0  0  0  0  0  0  0  0  0  0  0  0
    4.2868   -0.0000    0.0000 C   0  0  0  0  0  0  0  0  0  0  0  0
    3.5724   -0.4125    0.0000 C   0  0  0  0  0  0  0  0  0  0  0  0
    2.8579    0.0000    0.0000 C   0  0  0  0  0  0  0  0  0  0  0  0
    2.1434   -0.4125    0.0000 O   0  0  0  0  0  0  0  0  0  0  0  0
    1.4289    0.0000    0.0000 C   0  0  0  0  0  0  0  0  0  0  0  0
    0.7145   -0.4125    0.0000 C   0  0  0  0  0  0  0  0  0  0  0  0
    0.0000    0.0000    0.0000 C   0  0  0  0  0  0  0  0  0  0  0  0
    0.0000    0.8250    0.0000 C   0  0  0  0  0  0  0  0  0  0  0  0
    0.7145    1.2375    0.0000 C   0  0  0  0  0  0  0  0  0  0  0  0
    1.4289    0.8250    0.0000 C   0  0  0  0  0  0  0  0  0  0  0  0
  1  2  2  0  0  0  0
  2  3  1  0  0  0  0
  3  4  1  0  0  0  0
  4  5  1  0  0  0  0
  5  6  2  0  0  0  0
  5 14  1  0  0  0  0
  6  7  1  0  0  0  0
  7  8  1  0  0  0  0
  7 12  2  0  0  0  0
  8  9  1  0  0  0  0
  9 10  1  0  0  0  0
 10 11  2  0  0  0  0
 12 13  1  0  0  0  0
 13 14  2  0  0  0  0
 13 15  1  0  0  0  0
 15 16  1  0  0  0  0
 15 20  1  0  0  0  0
 16 17  1  0  0  0  0
 17 18  1  0  0  0  0
 18 19  1  0  0  0  0
 18 21  1  0  0  0  0
 19 20  1  0  0  0  0
 21 22  1  0  0  0  0
 22 23  1  0  0  0  0
 23 24  1  0  0  0  0
 23 36  1  0  0  0  0
 24 25  2  0  0  0  0
 24 29  1  0  0  0  0
 25 26  1  0  0  0  0
 26 27  2  0  0  0  0
 27 28  1  0  0  0  0
 28 29  2  0  0  0  0
 29 30  1  0  0  0  0
 30 31  1  0  0  0  0
 31 32  2  0  0  0  0
 31 36  1  0  0  0  0
 32 33  1  0  0  0  0
 33 34  2  0  0  0  0
 34 35  1  0  0  0  0
 35 36  2  0  0  0  0
M  END
$$$$

 OpenBabel12191814062D

 36 39  0  0  0  0  0  0  0  0999 V2000
   -3.5724    3.7125    0.0000 C   0  0  0  0  0  0  0  0  0  0  0  0
   -4.2868    3.3000    0.0000 C   0  0  0  0  0  0  0  0  0  0  0  0
   -4.2868    2.4750    0.0000 C   0  0  0  0  0  0  0  0  0  0  0  0
   -5.0013    2.0625    0.0000 N   0  0  0  0  0  0  0  0  0  0  0  0
   -5.0013    1.2375    0.0000 C   0  0  0  0  0  0  0  0  0  0  0  0
   -4.2868    0.8250    0.0000 N   0  0  0  0  0  0  0  0  0  0  0  0
   -4.2868   -0.0000    0.0000 C   0  0  0  0  0  0  0  0  0  0  0  0
   -3.5724   -0.4125    0.0000 N   0  0  0  0  0  0  0  0  0  0  0  0
   -3.5724   -1.2375    0.0000 C   0  0  0  0  0  0  0  0  0  0  0  0
   -2.8579   -1.6500    0.0000 C   0  0  0  0  0  0  0  0  0  0  0  0
   -2.8579   -2.4750    0.0000 C   0  0  0  0  0  0  0  0  0  0  0  0
   -5.0013   -0.4125    0.0000 N   0  0  0  0  0  0  0  0  0  0  0  0
   -5.7158   -0.0000    0.0000 C   0  0  0  0  0  0  0  0  0  0  0  0
   -5.7158    0.8250    0.0000 N   0  0  0  0  0  0  0  0  0  0  0  0
   -6.4302   -0.4125    0.0000 N   0  0  0  0  0  0  0  0  0  0  0  0
   -6.4302   -1.2375    0.0000 C   0  0  0  0  0  0  0  0  0  0  0  0
   -7.1447   -1.6500    0.0000 C   0  0  0  0  0  0  0  0  0  0  0  0
   -7.8592   -1.2375    0.0000 C   0  0  0  0  0  0  0  0  0  0  0  0
   -7.8592   -0.4125    0.0000 C   0  0  0  0  0  0  0  0  0  0  0  0
   -7.1447   -0.0000    0.0000 C   0  0  0  0  0  0  0  0  0  0  0  0
   -8.5737   -1.6500    0.0000 N   0  0  0  0  0  0  0  0  0  0  0  0
   -8.5737   -2.4750    0.0000 C   0  0  0  0  0  0  0  0  0  0  0  0
   -9.2881   -2.8875    0.0000 C   0  0  0  0  0  0  0  0  0  0  0  0
   -9.2881   -3.7125    0.0000 C   0  0  0  0  0  0  0  0  0  0  0  0
  -10.0026   -4.1250    0.0000 C   0  0  0  0  0  0  0  0  0  0  0  0
  -10.0026   -4.9500    0.0000 C   0  0  0  0  0  0  0  0  0  0  0  0
  -10.7171   -5.3625    0.0000 C   0  0  0  0  0  0  0  0  0  0  0  0
  -11.4315   -4.9500    0.0000 C   0  0  0  0  0  0  0  0  0  0  0  0
  -11.4315   -4.1250    0.0000 C   0  0  0  0  0  0  0  0  0  0  0  0
  -10.7171   -3.7125    0.0000 C   0  0  0  0  0  0  0  0  0  0  0  0
   -8.5737   -4.1250    0.0000 C   0  0  0  0  0  0  0  0  0  0  0  0
   -7.8592   -3.7125    0.0000 C   0  0  0  0  0  0  0  0  0  0  0  0
   -7.1447   -4.1250    0.0000 C   0  0  0  0  0  0  0  0  0  0  0  0
   -7.1447   -4.9500    0.0000 C   0  0  0  0  0  0  0  0  0  0  0  0
   -7.8592   -5.3625    0.0000 C   0  0  0  0  0  0  0  0  0  0  0  0
   -8.5737   -4.9500    0.0000 C   0  0  0  0  0  0  0  0  0  0  0  0
  1  2  2  0  0  0  0
  2  3  1  0  0  0  0
  3  4  1  0  0  0  0
  4  5  1  0  0  0  0
  5  6  2  0  0  0  0
  5 14  1  0  0  0  0
  6  7  1  0  0  0  0
  7  8  1  0  0  0  0
  7 12  2  0  0  0  0
  8  9  1  0  0  0  0
  9 10  1  0  0  0  0
 10 11  2  0  0  0  0
 12 13  1  0  0  0  0
 13 14  2  0  0  0  0
 13 15  1  0  0  0  0
 15 16  1  0  0  0  0
 15 20  1  0  0  0  0
 16 17  1  0  0  0  0
 17 18  1  0  0  0  0
 18 19  1  0  0  0  0
 18 21  1  0  0  0  0
 19 20  1  0  0  0  0
 21 22  1  0  0  0  0
 22 23  1  0  0  0  0
 23 24  1  0  0  0  0
 24 25  1  0  0  0  0
 24 31  1  0  0  0  0
 25 26  2  0  0  0  0
 25 30  1  0  0  0  0
 26 27  1  0  0  0  0
 27 28  2  0  0  0  0
 28 29  1  0  0  0  0
 29 30  2  0  0  0  0
 31 32  2  0  0  0  0
 31 36  1  0  0  0  0
 32 33  1  0  0  0  0
 33 34  2  0  0  0  0
 34 35  1  0  0  0  0
 35 36  2  0  0  0  0
M  END
$$$$

 OpenBabel12191814062D

 34 37  0  0  0  0  0  0  0  0999 V2000
   -2.1434    3.7125    0.0000 C   0  0  0  0  0  0  0  0  0  0  0  0
   -2.8579    3.3000    0.0000 C   0  0  0  0  0  0  0  0  0  0  0  0
   -2.8579    2.4750    0.0000 C   0  0  0  0  0  0  0  0  0  0  0  0
   -3.5724    2.0625    0.0000 N   0  0  0  0  0  0  0  0  0  0  0  0
   -3.5724    1.2375    0.0000 C   0  0  0  0  0  0  0  0  0  0  0  0
   -2.8579    0.8250    0.0000 N   0  0  0  0  0  0  0  0  0  0  0  0
   -2.8579   -0.0000    0.0000 C   0  0  0  0  0  0  0  0  0  0  0  0
   -2.1434   -0.4125    0.0000 N   0  0  0  0  0  0  0  0  0  0  0  0
   -2.1434   -1.2375    0.0000 C   0  0  0  0  0  0  0  0  0  0  0  0
   -1.4289   -1.6500    0.0000 C   0  0  0  0  0  0  0  0  0  0  0  0
   -1.4289   -2.4750    0.0000 C   0  0  0  0  0  0  0  0  0  0  0  0
   -3.5724   -0.4125    0.0000 N   0  0  0  0  0  0  0  0  0  0  0  0
   -4.2868   -0.0000    0.0000 C   0  0  0  0  0  0  0  0  0  0  0  0
   -4.2868    0.8250    0.0000 N   0  0  0  0  0  0  0  0  0  0  0  0
   -5.0013   -0.4125    0.0000 N   0  0  0  0  0  0  0  0  0  0  0  0
   -5.0013   -1.2375    0.0000 C   0  0  0  0  0  0  0  0  0  0  0  0
   -5.7158   -1.6500    0.0000 C   0  0  0  0  0  0  0  0  0  0  0  0
   -6.4302   -1.2375    0.0000 C   0  0  0  0  0  0  0  0  0  0  0  0
   -6.4302   -0.4125    0.0000 C   0  0  0  0  0  0  0  0  0  0  0  0
   -5.7158   -0.0000    0.0000 C   0  0  0  0  0  0  0  0  0  0  0  0
   -7.1447   -1.6500    0.0000 S   0  0  0  0  0  0  0  0  0  0  0  0
   -7.1447   -2.4750    0.0000 C   0  0  0  0  0  0  0  0  0  0  0  0
   -7.8592   -2.8875    0.0000 C   0  0  0  0  0  0  0  0  0  0  0  0
   -7.8592   -3.7125    0.0000 C   0  0  0  0  0  0  0  0  0  0  0  0
   -8.5737   -4.1250    0.0000 C   0  0  0  0  0  0  0  0  0  0  0  0
   -9.2881   -3.7125    0.0000 C   0  0  0  0  0  0  0  0  0  0  0  0
   -9.2881   -2.8875    0.0000 C   0  0  0  0  0  0  0  0  0  0  0  0
   -8.5737   -2.4750    0.0000 C   0  0  0  0  0  0  0  0  0  0  0  0
   -6.4302   -2.8875    0.0000 C   0  0  0  0  0  0  0  0  0  0  0  0
   -5.7158   -2.4750    0.0000 C   0  0  0  0  0  0  0  0  0  0  0  0
   -5.0013   -2.8875    0.0000 C   0  0  0  0  0  0  0  0  0  0  0  0
   -5.0013   -3.7125    0.0000 C   0  0  0  0  0  0  0  0  0  0  0  0
   -5.7158   -4.1250    0.0000 C   0  0  0  0  0  0  0  0  0  0  0  0
   -6.4302   -3.7125    0.0000 C   0  0  0  0  0  0  0  0  0  0  0  0
  1  2  2  0  0  0  0
  2  3  1  0  0  0  0
  3  4  1  0  0  0  0
  4  5  1  0  0  0  0
  5  6  2  0  0  0  0
  5 14  1  0  0  0  0
  6  7  1  0  0  0  0
  7  8  1  0  0  0  0
  7 12  2  0  0  0  0
  8  9  1  0  0  0  0
  9 10  1  0  0  0  0
 10 11  2  0  0  0  0
 12 13  1  0  0  0  0
 13 14  2  0  0  0  0
 13 15  1  0  0  0  0
 15 16  1  0  0  0  0
 15 20  1  0  0  0  0
 16 17  1  0  0  0  0
 17 18  1  0  0  0  0
 18 19  1  0  0  0  0
 18 21  1  0  0  0  0
 19 20  1  0  0  0  0
 21 22  1  0  0  0  0
 22 23  1  0  0  0  0
 22 29  1  0  0  0  0
 23 24  2  0  0  0  0
 23 28  1  0  0  0  0
 24 25  1  0  0  0  0
 25 26  2  0  0  0  0
 26 27  1  0  0  0  0
 27 28  2  0  0  0  0
 29 30  2  0  0  0  0
 29 34  1  0  0  0  0
 30 31  1  0  0  0  0
 31 32  2  0  0  0  0
 32 33  1  0  0  0  0
 33 34  2  0  0  0  0
M  END
$$$$

 OpenBabel12191814062D

 38 42  0  0  0  0  0  0  0  0999 V2000
    0.9458    8.5820    0.0000 C   0  0  0  0  0  0  0  0  0  0  0  0
    0.9458    7.7570    0.0000 C   0  0  0  0  0  0  0  0  0  0  0  0
    1.6603    7.3445    0.0000 C   0  0  0  0  0  0  0  0  0  0  0  0
    1.6603    6.5195    0.0000 N   0  0  0  0  0  0  0  0  0  0  0  0
    2.3747    6.1070    0.0000 C   0  0  0  0  0  0  0  0  0  0  0  0
    3.0892    6.5195    0.0000 N   0  0  0  0  0  0  0  0  0  0  0  0
    3.8037    6.1070    0.0000 C   0  0  0  0  0  0  0  0  0  0  0  0
    4.5181    6.5195    0.0000 N   0  0  0  0  0  0  0  0  0  0  0  0
    5.2326    6.1070    0.0000 C   0  0  0  0  0  0  0  0  0  0  0  0
    5.9471    6.5195    0.0000 C   0  0  0  0  0  0  0  0  0  0  0  0
    6.6616    6.1070    0.0000 C   0  0  0  0  0  0  0  0  0  0  0  0
    3.8037    5.2820    0.0000 N   0  0  0  0  0  0  0  0  0  0  0  0
    3.0892    4.8695    0.0000 C   0  0  0  0  0  0  0  0  0  0  0  0
    2.3747    5.2820    0.0000 N   0  0  0  0  0  0  0  0  0  0  0  0
    3.0892    4.0445    0.0000 N   0  0  0  0  0  0  0  0  0  0  0  0
    3.8037    3.6320    0.0000 C   0  0  0  0  0  0  0  0  0  0  0  0
    3.8037    2.8070    0.0000 C   0  0  0  0  0  0  0  0  0  0  0  0
    3.0892    2.3945    0.0000 N   0  0  0  0  0  0  0  0  0  0  0  0
    2.3747    2.8070    0.0000 C   0  0  0  0  0  0  0  0  0  0  0  0
    2.3747    3.6320    0.0000 C   0  0  0  0  0  0  0  0  0  0  0  0
    3.0892    1.5695    0.0000 N   0  0  0  0  0  0  0  0  0  0  0  0
    3.8037    1.1570    0.0000 C   0  0  0  0  0  0  0  0  0  0  0  0
    4.5181    1.5695    0.0000 O   0  0  0  0  0  0  0  0  0  0  0  0
    3.8037    0.3320    0.0000 C   0  0  0  0  0  0  0  0  0  0  0  0
    4.5470   -0.0260    0.0000 C   0  0  0  0  0  0  0  0  0  0  0  0
    5.1517    0.5352    0.0000 C   0  0  0  0  0  0  0  0  0  0  0  0
    5.9401    0.2920    0.0000 C   0  0  0  0  0  0  0  0  0  0  0  0
    6.1237   -0.5123    0.0000 C   0  0  0  0  0  0  0  0  0  0  0  0
    5.5189   -1.0735    0.0000 C   0  0  0  0  0  0  0  0  0  0  0  0
    4.7305   -0.8303    0.0000 C   0  0  0  0  0  0  0  0  0  0  0  0
    4.2162   -1.4753    0.0000 C   0  0  0  0  0  0  0  0  0  0  0  0
    3.3912   -1.4753    0.0000 C   0  0  0  0  0  0  0  0  0  0  0  0
    2.8768   -0.8303    0.0000 C   0  0  0  0  0  0  0  0  0  0  0  0
    2.0884   -1.0735    0.0000 C   0  0  0  0  0  0  0  0  0  0  0  0
    1.4837   -0.5123    0.0000 C   0  0  0  0  0  0  0  0  0  0  0  0
    1.6673    0.2920    0.0000 C   0  0  0  0  0  0  0  0  0  0  0  0
    2.4556    0.5352    0.0000 C   0  0  0  0  0  0  0  0  0  0  0  0
    3.0604   -0.0260    0.0000 C   0  0  0  0  0  0  0  0  0  0  0  0
  1  2  2  0  0  0  0
  2  3  1  0  0  0  0
  3  4  1  0  0  0  0
  4  5  1  0  0  0  0
  5  6  2  0  0  0  0
  5 14  1  0  0  0  0
  6  7  1  0  0  0  0
  7  8  1  0  0  0  0
  7 12  2  0  0  0  0
  8  9  1  0  0  0  0
  9 10  1  0  0  0  0
 10 11  2  0  0  0  0
 12 13  1  0  0  0  0
 13 14  2  0  0  0  0
 13 15  1  0  0  0  0
 15 16  1  0  0  0  0
 15 20  1  0  0  0  0
 16 17  1  0  0  0  0
 17 18  1  0  0  0  0
 18 19  1  0  0  0  0
 18 21  1  0  0  0  0
 19 20  1  0  0  0  0
 21 22  1  0  0  0  0
 22 23  2  0  0  0  0
 22 24  1  0  0  0  0
 24 25  1  0  0  0  0
 24 38  1  0  0  0  0
 25 26  2  0  0  0  0
 25 30  1  0  0  0  0
 26 27  1  0  0  0  0
 27 28  2  0  0  0  0
 28 29  1  0  0  0  0
 29 30  2  0  0  0  0
 30 31  1  0  0  0  0
 31 32  1  0  0  0  0
 32 33  1  0  0  0  0
 33 34  2  0  0  0  0
 33 38  1  0  0  0  0
 34 35  1  0  0  0  0
 35 36  2  0  0  0  0
 36 37  1  0  0  0  0
 37 38  2  0  0  0  0
M  END
$$$$

 OpenBabel12191814062D

 37 41  0  0  0  0  0  0  0  0999 V2000
    0.9458    8.5820    0.0000 C   0  0  0  0  0  0  0  0  0  0  0  0
    0.9458    7.7570    0.0000 C   0  0  0  0  0  0  0  0  0  0  0  0
    1.6603    7.3445    0.0000 C   0  0  0  0  0  0  0  0  0  0  0  0
    1.6603    6.5195    0.0000 N   0  0  0  0  0  0  0  0  0  0  0  0
    2.3747    6.1070    0.0000 C   0  0  0  0  0  0  0  0  0  0  0  0
    3.0892    6.5195    0.0000 N   0  0  0  0  0  0  0  0  0  0  0  0
    3.8037    6.1070    0.0000 C   0  0  0  0  0  0  0  0  0  0  0  0
    4.5181    6.5195    0.0000 N   0  0  0  0  0  0  0  0  0  0  0  0
    5.2326    6.1070    0.0000 C   0  0  0  0  0  0  0  0  0  0  0  0
    5.9471    6.5195    0.0000 C   0  0  0  0  0  0  0  0  0  0  0  0
    6.6616    6.1070    0.0000 C   0  0  0  0  0  0  0  0  0  0  0  0
    3.8037    5.2820    0.0000 N   0  0  0  0  0  0  0  0  0  0  0  0
    3.0892    4.8695    0.0000 C   0  0  0  0  0  0  0  0  0  0  0  0
    2.3747    5.2820    0.0000 N   0  0  0  0  0  0  0  0  0  0  0  0
    3.0892    4.0445    0.0000 N   0  0  0  0  0  0  0  0  0  0  0  0
    3.8037    3.6320    0.0000 C   0  0  0  0  0  0  0  0  0  0  0  0
    3.8037    2.8070    0.0000 C   0  0  0  0  0  0  0  0  0  0  0  0
    3.0892    2.3945    0.0000 N   0  0  0  0  0  0  0  0  0  0  0  0
    2.3747    2.8070    0.0000 C   0  0  0  0  0  0  0  0  0  0  0  0
    2.3747    3.6320    0.0000 C   0  0  0  0  0  0  0  0  0  0  0  0
    3.0892    1.5695    0.0000 N   0  0  0  0  0  0  0  0  0  0  0  0
    3.8037    1.1570    0.0000 C   0  0  0  0  0  0  0  0  0  0  0  0
    3.8037    0.3320    0.0000 C   0  0  0  0  0  0  0  0  0  0  0  0
    4.5470   -0.0260    0.0000 C   0  0  0  0  0  0  0  0  0  0  0  0
    5.1517    0.5352    0.0000 C   0  0  0  0  0  0  0  0  0  0  0  0
    5.9401    0.2920    0.0000 C   0  0  0  0  0  0  0  0  0  0  0  0
    6.1237   -0.5123    0.0000 C   0  0  0  0  0  0  0  0  0  0  0  0
    5.5189   -1.0735    0.0000 C   0  0  0  0  0  0  0  0  0  0  0  0
    4.7305   -0.8303    0.0000 C   0  0  0  0  0  0  0  0  0  0  0  0
    4.2162   -1.4753    0.0000 C   0  0  0  0  0  0  0  0  0  0  0  0
    3.3912   -1.4753    0.0000 C   0  0  0  0  0  0  0  0  0  0  0  0
    2.8768   -0.8303    0.0000 C   0  0  0  0  0  0  0  0  0  0  0  0
    2.0884   -1.0735    0.0000 C   0  0  0  0  0  0  0  0  0  0  0  0
    1.4837   -0.5123    0.0000 C   0  0  0  0  0  0  0  0  0  0  0  0
    1.6673    0.2920    0.0000 C   0  0  0  0  0  0  0  0  0  0  0  0
    2.4556    0.5352    0.0000 C   0  0  0  0  0  0  0  0  0  0  0  0
    3.0604   -0.0260    0.0000 C   0  0  0  0  0  0  0  0  0  0  0  0
  1  2  2  0  0  0  0
  2  3  1  0  0  0  0
  3  4  1  0  0  0  0
  4  5  1  0  0  0  0
  5  6  2  0  0  0  0
  5 14  1  0  0  0  0
  6  7  1  0  0  0  0
  7  8  1  0  0  0  0
  7 12  2  0  0  0  0
  8  9  1  0  0  0  0
  9 10  1  0  0  0  0
 10 11  2  0  0  0  0
 12 13  1  0  0  0  0
 13 14  2  0  0  0  0
 13 15  1  0  0  0  0
 15 16  1  0  0  0  0
 15 20  1  0  0  0  0
 16 17  1  0  0  0  0
 17 18  1  0  0  0  0
 18 19  1  0  0  0  0
 18 21  1  0  0  0  0
 19 20  1  0  0  0  0
 21 22  1  0  0  0  0
 22 23  1  0  0  0  0
 23 24  1  0  0  0  0
 23 37  1  0  0  0  0
 24 25  2  0  0  0  0
 24 29  1  0  0  0  0
 25 26  1  0  0  0  0
 26 27  2  0  0  0  0
 27 28  1  0  0  0  0
 28 29  2  0  0  0  0
 29 30  1  0  0  0  0
 30 31  1  0  0  0  0
 31 32  1  0  0  0  0
 32 33  2  0  0  0  0
 32 37  1  0  0  0  0
 33 34  1  0  0  0  0
 34 35  2  0  0  0  0
 35 36  1  0  0  0  0
 36 37  2  0  0  0  0
M  END
$$$$

 OpenBabel12191814062D

 36 40  0  0  0  0  0  0  0  0999 V2000
   -3.3410    2.8070    0.0000 C   0  0  0  0  0  0  0  0  0  0  0  0
   -2.6266    2.3945    0.0000 C   0  0  0  0  0  0  0  0  0  0  0  0
   -1.9121    2.8070    0.0000 C   0  0  0  0  0  0  0  0  0  0  0  0
   -1.1976    2.3945    0.0000 N   0  0  0  0  0  0  0  0  0  0  0  0
   -0.4832    2.8070    0.0000 C   0  0  0  0  0  0  0  0  0  0  0  0
   -0.4832    3.6320    0.0000 N   0  0  0  0  0  0  0  0  0  0  0  0
    0.2313    4.0445    0.0000 C   0  0  0  0  0  0  0  0  0  0  0  0
    0.2313    4.8695    0.0000 N   0  0  0  0  0  0  0  0  0  0  0  0
    0.9458    5.2820    0.0000 C   0  0  0  0  0  0  0  0  0  0  0  0
    0.9458    6.1070    0.0000 C   0  0  0  0  0  0  0  0  0  0  0  0
    1.6603    6.5195    0.0000 C   0  0  0  0  0  0  0  0  0  0  0  0
    0.9458    3.6320    0.0000 N   0  0  0  0  0  0  0  0  0  0  0  0
    0.9458    2.8070    0.0000 C   0  0  0  0  0  0  0  0  0  0  0  0
    0.2313    2.3945    0.0000 N   0  0  0  0  0  0  0  0  0  0  0  0
    1.6603    2.3945    0.0000 N   0  0  0  0  0  0  0  0  0  0  0  0
    2.3747    2.8070    0.0000 C   0  0  0  0  0  0  0  0  0  0  0  0
    3.0892    2.3945    0.0000 C   0  0  0  0  0  0  0  0  0  0  0  0
    3.0892    1.5695    0.0000 N   0  0  0  0  0  0  0  0  0  0  0  0
    3.8037    1.1570    0.0000 C   0  0  0  0  0  0  0  0  0  0  0  0
    3.8037    0.3320    0.0000 C   0  0  0  0  0  0  0  0  0  0  0  0
    4.5470   -0.0260    0.0000 C   0  0  0  0  0  0  0  0  0  0  0  0
    5.1517    0.5352    0.0000 C   0  0  0  0  0  0  0  0  0  0  0  0
    5.9401    0.2920    0.0000 C   0  0  0  0  0  0  0  0  0  0  0  0
    6.1237   -0.5123    0.0000 C   0  0  0  0  0  0  0  0  0  0  0  0
    5.5189   -1.0735    0.0000 C   0  0  0  0  0  0  0  0  0  0  0  0
    4.7305   -0.8303    0.0000 C   0  0  0  0  0  0  0  0  0  0  0  0
    4.2162   -1.4753    0.0000 C   0  0  0  0  0  0  0  0  0  0  0  0
    3.3912   -1.4753    0.0000 C   0  0  0  0  0  0  0  0  0  0  0  0
    2.8768   -0.8303    0.0000 C   0  0  0  0  0  0  0  0  0  0  0  0
    2.0884   -1.0735    0.0000 C   0  0  0  0  0  0  0  0  0  0  0  0
    1.4837   -0.5123    0.0000 C   0  0  0  0  0  0  0  0  0  0  0  0
    1.6673    0.2920    0.0000 C   0  0  0  0  0  0  0  0  0  0  0  0
    2.4556    0.5352    0.0000 C   0  0  0  0  0  0  0  0  0  0  0  0
    3.0604   -0.0260    0.0000 C   0  0  0  0  0  0  0  0  0  0  0  0
    2.3747    1.1570    0.0000 C   0  0  0  0  0  0  0  0  0  0  0  0
    1.6603    1.5695    0.0000 C   0  0  0  0  0  0  0  0  0  0  0  0
  1  2  2  0  0  0  0
  2  3  1  0  0  0  0
  3  4  1  0  0  0  0
  4  5  1  0  0  0  0
  5  6  2  0  0  0  0
  5 14  1  0  0  0  0
  6  7  1  0  0  0  0
  7  8  1  0  0  0  0
  7 12  2  0  0  0  0
  8  9  1  0  0  0  0
  9 10  1  0  0  0  0
 10 11  2  0  0  0  0
 12 13  1  0  0  0  0
 13 14  2  0  0  0  0
 13 15  1  0  0  0  0
 15 16  1  0  0  0  0
 15 36  1  0  0  0  0
 16 17  1  0  0  0  0
 17 18  1  0  0  0  0
 18 19  1  0  0  0  0
 18 35  1  0  0  0  0
 19 20  1  0  0  0  0
 20 21  1  0  0  0  0
 20 34  1  0  0  0  0
 21 22  2  0  0  0  0
 21 26  1  0  0  0  0
 22 23  1  0  0  0  0
 23 24  2  0  0  0  0
 24 25  1  0  0  0  0
 25 26  2  0  0  0  0
 26 27  1  0  0  0  0
 27 28  1  0  0  0  0
 28 29  1  0  0  0  0
 29 30  2  0  0  0  0
 29 34  1  0  0  0  0
 30 31  1  0  0  0  0
 31 32  2  0  0  0  0
 32 33  1  0  0  0  0
 33 34  2  0  0  0  0
 35 36  1  0  0  0  0
M  END
$$$$

 OpenBabel12191814062D

 34 39  0  0  0  0  0  0  0  0999 V2000
    0.7145    1.2375    0.0000 C   0  0  0  0  0  0  0  0  0  0  0  0
    1.4289    0.8250    0.0000 C   0  0  0  0  0  0  0  0  0  0  0  0
    1.4289    0.0000    0.0000 C   0  0  0  0  0  0  0  0  0  0  0  0
    0.7145   -0.4125    0.0000 C   0  0  0  0  0  0  0  0  0  0  0  0
    0.0000   -0.0000    0.0000 C   0  0  0  0  0  0  0  0  0  0  0  0
    0.0000    0.8250    0.0000 C   0  0  0  0  0  0  0  0  0  0  0  0
    0.7145   -1.2375    0.0000 N   0  0  0  0  0  0  0  0  0  0  0  0
    1.4289   -1.6500    0.0000 C   0  0  0  0  0  0  0  0  0  0  0  0
    2.1434   -1.2375    0.0000 C   0  0  0  0  0  0  0  0  0  0  0  0
    2.8579   -1.6500    0.0000 C   0  0  0  0  0  0  0  0  0  0  0  0
    3.5724   -1.2375    0.0000 N   0  0  0  0  0  0  0  0  0  0  0  0
    3.5724   -0.4125    0.0000 C   0  0  0  0  0  0  0  0  0  0  0  0
    2.8579    0.0000    0.0000 C   0  0  0  0  0  0  0  0  0  0  0  0
    2.8579    0.8250    0.0000 C   0  0  0  0  0  0  0  0  0  0  0  0
    3.5724    1.2375    0.0000 C   0  0  0  0  0  0  0  0  0  0  0  0
    4.2868    0.8250    0.0000 C   0  0  0  0  0  0  0  0  0  0  0  0
    4.2868    0.0000    0.0000 C   0  0  0  0  0  0  0  0  0  0  0  0
    4.2868   -1.6500    0.0000 C   0  0  0  0  0  0  0  0  0  0  0  0
    5.0013   -1.2375    0.0000 C   0  0  0  0  0  0  0  0  0  0  0  0
    5.7158   -1.6500    0.0000 C   0  0  0  0  0  0  0  0  0  0  0  0
    5.7158   -2.4750    0.0000 C   0  0  0  0  0  0  0  0  0  0  0  0
    5.0013   -2.8875    0.0000 C   0  0  0  0  0  0  0  0  0  0  0  0
    4.2868   -2.4750    0.0000 C   0  0  0  0  0  0  0  0  0  0  0  0
    3.5724   -2.8875    0.0000 N   0  0  0  0  0  0  0  0  0  0  0  0
    2.8579   -2.4750    0.0000 C   0  0  0  0  0  0  0  0  0  0  0  0
    2.1434   -2.8875    0.0000 C   0  0  0  0  0  0  0  0  0  0  0  0
    1.4289   -2.4750    0.0000 C   0  0  0  0  0  0  0  0  0  0  0  0
    0.7145   -2.8875    0.0000 N   0  0  0  0  0  0  0  0  0  0  0  0
    0.0000   -2.4750    0.0000 C   0  0  0  0  0  0  0  0  0  0  0  0
   -0.7145   -2.8875    0.0000 C   0  0  0  0  0  0  0  0  0  0  0  0
   -1.4289   -2.4750    0.0000 C   0  0  0  0  0  0  0  0  0  0  0  0
   -1.4289   -1.6500    0.0000 C   0  0  0  0  0  0  0  0  0  0  0  0
   -0.7145   -1.2375    0.0000 C   0  0  0  0  0  0  0  0  0  0  0  0
    0.0000   -1.6500    0.0000 C   0  0  0  0  0  0  0  0  0  0  0  0
  1  2  1  0  0  0  0
  1  6  1  0  0  0  0
  2  3  1  0  0  0  0
  3  4  1  0  0  0  0
  4  5  1  0  0  0  0
  4  7  1  0  0  0  0
  5  6  1  0  0  0  0
  7  8  2  0  0  0  0
  8  9  1  0  0  0  0
  8 27  1  0  0  0  0
  9 10  2  0  0  0  0
 10 11  1  0  0  0  0
 10 25  1  0  0  0  0
 11 12  1  0  0  0  0
 11 18  1  0  0  0  0
 12 13  2  0  0  0  0
 12 17  1  0  0  0  0
 13 14  1  0  0  0  0
 14 15  2  0  0  0  0
 15 16  1  0  0  0  0
 16 17  2  0  0  0  0
 18 19  2  0  0  0  0
 18 23  1  0  0  0  0
 19 20  1  0  0  0  0
 20 21  2  0  0  0  0
 21 22  1  0  0  0  0
 22 23  2  0  0  0  0
 23 24  1  0  0  0  0
 24 25  2  0  0  0  0
 25 26  1  0  0  0  0
 26 27  2  0  0  0  0
 27 28  1  0  0  0  0
 28 29  1  0  0  0  0
 29 30  2  0  0  0  0
 29 34  1  0  0  0  0
 30 31  1  0  0  0  0
 31 32  2  0  0  0  0
 32 33  1  0  0  0  0
 33 34  2  0  0  0  0
M  END
$$$$

 OpenBabel12191814062D

 10 11  0  0  0  0  0  0  0  0999 V2000
    3.5485    1.8011    0.0000 C   0  0  0  0  0  0  0  0  0  0  0  0
    3.1906    1.0578    0.0000 C   0  0  0  0  0  0  0  0  0  0  0  0
    2.3863    0.8742    0.0000 C   0  0  0  0  0  0  0  0  0  0  0  0
    1.7413    1.3886    0.0000 C   0  0  0  0  0  0  0  0  0  0  0  0
    0.9566    1.1337    0.0000 N   0  0  0  0  0  0  0  0  0  0  0  0
    0.4717    1.8011    0.0000 N   0  0  0  0  0  0  0  0  0  0  0  0
    0.9566    2.4686    0.0000 N   0  0  0  0  0  0  0  0  0  0  0  0
    1.7413    2.2136    0.0000 N   0  0  0  0  0  0  0  0  0  0  0  0
    2.3863    2.7280    0.0000 C   0  0  0  0  0  0  0  0  0  0  0  0
    3.1906    2.5444    0.0000 C   0  0  0  0  0  0  0  0  0  0  0  0
  1  2  1  0  0  0  0
  1 10  1  0  0  0  0
  2  3  1  0  0  0  0
  3  4  1  0  0  0  0
  4  5  2  0  0  0  0
  4  8  1  0  0  0  0
  5  6  1  0  0  0  0
  6  7  2  0  0  0  0
  7  8  1  0  0  0  0
  8  9  1  0  0  0  0
  9 10  1  0  0  0  0
M  END
$$$$

 OpenBabel12191814062D

 34 39  0  0  0  0  0  0  0  0999 V2000
   -1.4289   -1.6500    0.0000 C   0  0  0  0  0  0  0  0  0  0  0  0
   -0.7145   -1.2375    0.0000 C   0  0  0  0  0  0  0  0  0  0  0  0
    0.0000   -1.6500    0.0000 N   0  0  0  0  0  0  0  0  0  0  0  0
    0.0000   -2.4750    0.0000 C   0  0  0  0  0  0  0  0  0  0  0  0
   -0.7145   -2.8875    0.0000 C   0  0  0  0  0  0  0  0  0  0  0  0
   -1.4289   -2.4750    0.0000 O   0  0  0  0  0  0  0  0  0  0  0  0
    0.7145   -1.2375    0.0000 C   0  0  0  0  0  0  0  0  0  0  0  0
    0.7145   -0.4125    0.0000 N   0  0  0  0  0  0  0  0  0  0  0  0
    1.4289    0.0000    0.0000 C   0  0  0  0  0  0  0  0  0  0  0  0
    1.4289    0.8250    0.0000 N   0  0  0  0  0  0  0  0  0  0  0  0
    0.7145    1.2375    0.0000 C   0  0  0  0  0  0  0  0  0  0  0  0
    0.7145    2.0625    0.0000 C   0  0  0  0  0  0  0  0  0  0  0  0
    1.4289    2.4750    0.0000 O   0  0  0  0  0  0  0  0  0  0  0  0
    2.1434    2.0625    0.0000 C   0  0  0  0  0  0  0  0  0  0  0  0
    2.1434    1.2375    0.0000 C   0  0  0  0  0  0  0  0  0  0  0  0
    2.1434   -0.4125    0.0000 C   0  0  0  0  0  0  0  0  0  0  0  0
    2.8579    0.0000    0.0000 N   0  0  0  0  0  0  0  0  0  0  0  0
    3.5724   -0.4125    0.0000 C   0  0  0  0  0  0  0  0  0  0  0  0
    4.2868   -0.0000    0.0000 C   0  0  0  0  0  0  0  0  0  0  0  0
    4.2868    0.8250    0.0000 C   0  0  0  0  0  0  0  0  0  0  0  0
    5.0013    1.2375    0.0000 C   0  0  0  0  0  0  0  0  0  0  0  0
    5.7158    0.8250    0.0000 C   0  0  0  0  0  0  0  0  0  0  0  0
    5.7158   -0.0000    0.0000 C   0  0  0  0  0  0  0  0  0  0  0  0
    5.0013   -0.4125    0.0000 C   0  0  0  0  0  0  0  0  0  0  0  0
    3.5724   -1.2375    0.0000 C   0  0  0  0  0  0  0  0  0  0  0  0
    2.8579   -1.6500    0.0000 N   0  0  0  0  0  0  0  0  0  0  0  0
    2.1434   -1.2375    0.0000 C   0  0  0  0  0  0  0  0  0  0  0  0
    1.4289   -1.6500    0.0000 N   0  0  0  0  0  0  0  0  0  0  0  0
    4.2868   -1.6500    0.0000 N   0  0  0  0  0  0  0  0  0  0  0  0
    5.0013   -1.2375    0.0000 C   0  0  0  0  0  0  0  0  0  0  0  0
    5.7158   -1.6500    0.0000 C   0  0  0  0  0  0  0  0  0  0  0  0
    5.7158   -2.4750    0.0000 O   0  0  0  0  0  0  0  0  0  0  0  0
    5.0013   -2.8875    0.0000 C   0  0  0  0  0  0  0  0  0  0  0  0
    4.2868   -2.4750    0.0000 C   0  0  0  0  0  0  0  0  0  0  0  0
  1  2  1  0  0  0  0
  1  6  1  0  0  0  0
  2  3  1  0  0  0  0
  3  4  1  0  0  0  0
  3  7  1  0  0  0  0
  4  5  1  0  0  0  0
  5  6  1  0  0  0  0
  7  8  2  0  0  0  0
  7 28  1  0  0  0  0
  8  9  1  0  0  0  0
  9 10  1  0  0  0  0
  9 16  2  0  0  0  0
 10 11  1  0  0  0  0
 10 15  1  0  0  0  0
 11 12  1  0  0  0  0
 12 13  1  0  0  0  0
 13 14  1  0  0  0  0
 14 15  1  0  0  0  0
 16 17  1  0  0  0  0
 16 27  1  0  0  0  0
 17 18  2  0  0  0  0
 18 19  1  0  0  0  0
 18 25  1  0  0  0  0
 19 20  2  0  0  0  0
 19 24  1  0  0  0  0
 20 21  1  0  0  0  0
 21 22  2  0  0  0  0
 22 23  1  0  0  0  0
 23 24  2  0  0  0  0
 25 26  2  0  0  0  0
 25 29  1  0  0  0  0
 26 27  1  0  0  0  0
 27 28  2  0  0  0  0
 29 30  1  0  0  0  0
 29 34  1  0  0  0  0
 30 31  1  0  0  0  0
 31 32  1  0  0  0  0
 32 33  1  0  0  0  0
 33 34  1  0  0  0  0
M  END
$$$$

 OpenBabel12191814062D

 24 27  0  0  0  0  0  0  0  0999 V2000
   -1.0203   -5.0437    0.0000 C   0  0  0  0  0  0  0  0  0  0  0  0
   -1.2752   -4.2590    0.0000 C   0  0  0  0  0  0  0  0  0  0  0  0
   -0.6078   -3.7741    0.0000 N   0  0  0  0  0  0  0  0  0  0  0  0
    0.0597   -4.2590    0.0000 C   0  0  0  0  0  0  0  0  0  0  0  0
   -0.1953   -5.0437    0.0000 N   0  0  0  0  0  0  0  0  0  0  0  0
   -0.6078   -2.9491    0.0000 C   0  0  3  0  0  0  0  0  0  0  0  0
    0.1067   -2.5366    0.0000 C   0  0  0  0  0  0  0  0  0  0  0  0
    0.1067   -1.7116    0.0000 C   0  0  0  0  0  0  0  0  0  0  0  0
    0.8212   -1.2991    0.0000 C   0  0  0  0  0  0  0  0  0  0  0  0
    1.5356   -1.7116    0.0000 C   0  0  0  0  0  0  0  0  0  0  0  0
    1.5356   -2.5366    0.0000 C   0  0  0  0  0  0  0  0  0  0  0  0
    0.8212   -2.9491    0.0000 C   0  0  0  0  0  0  0  0  0  0  0  0
   -1.3222   -2.5366    0.0000 C   0  0  0  0  0  0  0  0  0  0  0  0
   -2.0367   -2.9491    0.0000 C   0  0  0  0  0  0  0  0  0  0  0  0
   -2.7512   -2.5366    0.0000 C   0  0  0  0  0  0  0  0  0  0  0  0
   -2.7512   -1.7116    0.0000 C   0  0  0  0  0  0  0  0  0  0  0  0
   -2.0367   -1.2991    0.0000 C   0  0  0  0  0  0  0  0  0  0  0  0
   -1.3222   -1.7116    0.0000 C   0  0  0  0  0  0  0  0  0  0  0  0
   -3.4656   -1.2991    0.0000 C   0  0  0  0  0  0  0  0  0  0  0  0
   -4.1801   -1.7116    0.0000 C   0  0  0  0  0  0  0  0  0  0  0  0
   -4.8946   -1.2991    0.0000 C   0  0  0  0  0  0  0  0  0  0  0  0
   -4.8946   -0.4741    0.0000 C   0  0  0  0  0  0  0  0  0  0  0  0
   -4.1801   -0.0616    0.0000 C   0  0  0  0  0  0  0  0  0  0  0  0
   -3.4656   -0.4741    0.0000 C   0  0  0  0  0  0  0  0  0  0  0  0
  1  2  2  0  0  0  0
  1  5  1  0  0  0  0
  2  3  1  0  0  0  0
  3  4  1  0  0  0  0
  3  6  1  0  0  0  0
  4  5  2  0  0  0  0
  6  7  1  0  0  0  0
  6 13  1  0  0  0  0
  7  8  2  0  0  0  0
  7 12  1  0  0  0  0
  8  9  1  0  0  0  0
  9 10  2  0  0  0  0
 10 11  1  0  0  0  0
 11 12  2  0  0  0  0
 13 14  2  0  0  0  0
 13 18  1  0  0  0  0
 14 15  1  0  0  0  0
 15 16  2  0  0  0  0
 16 17  1  0  0  0  0
 16 19  1  0  0  0  0
 17 18  2  0  0  0  0
 19 20  2  0  0  0  0
 19 24  1  0  0  0  0
 20 21  1  0  0  0  0
 21 22  2  0  0  0  0
 22 23  1  0  0  0  0
 23 24  2  0  0  0  0
M  END
$$$$

 OpenBabel12191814062D

 23 27  0  0  0  0  0  0  0  0999 V2000
    0.5080   -2.6694    0.0000 C   0  0  0  0  0  0  0  0  0  0  0  0
    0.5080   -2.1194    0.0000 C   0  0  0  0  0  0  0  0  0  0  0  0
    0.6455   -1.5694    0.0000 N   0  0  3  0  0  0  0  0  0  0  0  0
   -0.0689   -1.9819    0.0000 C   0  0  0  0  0  0  0  0  0  0  0  0
   -0.0689   -2.8069    0.0000 C   0  0  0  0  0  0  0  0  0  0  0  0
    0.6455   -3.2194    0.0000 C   0  0  3  0  0  0  0  0  0  0  0  0
    1.3600   -2.8069    0.0000 C   0  0  3  0  0  0  0  0  0  0  0  0
    1.3600   -1.9819    0.0000 C   0  0  0  0  0  0  0  0  0  0  0  0
    2.0745   -3.2194    0.0000 N   0  0  0  0  0  0  0  0  0  0  0  0
    2.7561   -2.7546    0.0000 C   0  0  0  0  0  0  0  0  0  0  0  0
    2.5726   -1.9503    0.0000 C   0  0  0  0  0  0  0  0  0  0  0  0
    3.1773   -1.3892    0.0000 C   0  0  0  0  0  0  0  0  0  0  0  0
    3.9657   -1.6324    0.0000 C   0  0  0  0  0  0  0  0  0  0  0  0
    4.1493   -2.4367    0.0000 C   0  0  0  0  0  0  0  0  0  0  0  0
    3.5445   -2.9978    0.0000 C   0  0  0  0  0  0  0  0  0  0  0  0
    3.8459   -3.7658    0.0000 C   0  0  0  0  0  0  0  0  0  0  0  0
    3.4334   -4.4803    0.0000 C   0  0  0  0  0  0  0  0  0  0  0  0
    2.6176   -4.6032    0.0000 C   0  0  0  0  0  0  0  0  0  0  0  0
    2.4340   -5.4075    0.0000 C   0  0  0  0  0  0  0  0  0  0  0  0
    1.6457   -5.6507    0.0000 C   0  0  0  0  0  0  0  0  0  0  0  0
    1.0409   -5.0896    0.0000 C   0  0  0  0  0  0  0  0  0  0  0  0
    1.2245   -4.2852    0.0000 C   0  0  0  0  0  0  0  0  0  0  0  0
    2.0128   -4.0421    0.0000 C   0  0  0  0  0  0  0  0  0  0  0  0
  1  2  1  0  0  0  0
  1  6  1  0  0  0  0
  2  3  1  0  0  0  0
  3  4  1  0  0  0  0
  3  8  1  0  0  0  0
  4  5  1  0  0  0  0
  5  6  1  0  0  0  0
  6  7  1  0  0  0  0
  7  8  1  0  0  0  0
  7  9  1  0  0  0  0
  9 10  1  0  0  0  0
  9 23  1  0  0  0  0
 10 11  2  0  0  0  0
 10 15  1  0  0  0  0
 11 12  1  0  0  0  0
 12 13  2  0  0  0  0
 13 14  1  0  0  0  0
 14 15  2  0  0  0  0
 15 16  1  0  0  0  0
 16 17  1  0  0  0  0
 17 18  1  0  0  0  0
 18 19  2  0  0  0  0
 18 23  1  0  0  0  0
 19 20  1  0  0  0  0
 20 21  2  0  0  0  0
 21 22  1  0  0  0  0
 22 23  2  0  0  0  0
M  END
$$$$

 OpenBabel12191814062D

 24 26  0  0  0  0  0  0  0  0999 V2000
   -2.8579   -2.4750    0.0000 C   0  0  0  0  0  0  0  0  0  0  0  0
   -2.1434   -2.0625    0.0000 C   0  0  0  0  0  0  0  0  0  0  0  0
   -1.4289   -1.6500    0.0000 C   0  0  0  0  0  0  0  0  0  0  0  0
   -0.7145   -1.2375    0.0000 C   0  0  0  0  0  0  0  0  0  0  0  0
   -0.7145   -0.4125    0.0000 O   0  0  0  0  0  0  0  0  0  0  0  0
    0.0000   -1.6500    0.0000 N   0  0  0  0  0  0  0  0  0  0  0  0
    0.7145   -1.2375    0.0000 C   0  0  0  0  0  0  0  0  0  0  0  0
    0.7145   -0.4125    0.0000 C   0  0  0  0  0  0  0  0  0  0  0  0
    1.4289    0.0000    0.0000 C   0  0  0  0  0  0  0  0  0  0  0  0
    2.1434   -0.4125    0.0000 C   0  0  0  0  0  0  0  0  0  0  0  0
    2.8579    0.0000    0.0000 N   0  0  0  0  0  0  0  0  0  0  0  0
    3.5724   -0.4125    0.0000 C   0  0  0  0  0  0  0  0  0  0  0  0
    3.5724   -1.2375    0.0000 N   0  0  0  0  0  0  0  0  0  0  0  0
    2.8579   -1.6500    0.0000 C   0  0  0  0  0  0  0  0  0  0  0  0
    2.8579   -2.4750    0.0000 N   0  0  0  0  0  0  0  0  0  0  0  0
    2.1434   -2.8875    0.0000 C   0  0  0  0  0  0  0  0  0  0  0  0
    2.1434   -3.7125    0.0000 C   0  0  0  0  0  0  0  0  0  0  0  0
    1.4289   -4.1250    0.0000 C   0  0  0  0  0  0  0  0  0  0  0  0
    0.7145   -3.7125    0.0000 C   0  0  0  0  0  0  0  0  0  0  0  0
    0.7145   -2.8875    0.0000 C   0  0  0  0  0  0  0  0  0  0  0  0
    0.0000   -2.4750    0.0000 Br  0  0  0  0  0  0  0  0  0  0  0  0
    1.4289   -2.4750    0.0000 C   0  0  0  0  0  0  0  0  0  0  0  0
    2.1434   -1.2375    0.0000 C   0  0  0  0  0  0  0  0  0  0  0  0
    1.4289   -1.6500    0.0000 C   0  0  0  0  0  0  0  0  0  0  0  0
  1  2  1  0  0  0  0
  2  3  3  0  0  0  0
  3  4  1  0  0  0  0
  4  5  2  0  0  0  0
  4  6  1  0  0  0  0
  6  7  1  0  0  0  0
  7  8  2  0  0  0  0
  7 24  1  0  0  0  0
  8  9  1  0  0  0  0
  9 10  2  0  0  0  0
 10 11  1  0  0  0  0
 10 23  1  0  0  0  0
 11 12  2  0  0  0  0
 12 13  1  0  0  0  0
 13 14  2  0  0  0  0
 14 15  1  0  0  0  0
 14 23  1  0  0  0  0
 15 16  1  0  0  0  0
 16 17  2  0  0  0  0
 16 22  1  0  0  0  0
 17 18  1  0  0  0  0
 18 19  2  0  0  0  0
 19 20  1  0  0  0  0
 20 21  1  0  0  0  0
 20 22  2  0  0  0  0
 23 24  2  0  0  0  0
M  END
$$$$

 OpenBabel12191814062D

 32 36  0  0  0  0  0  0  0  0999 V2000
    0.6319   -2.9251    0.0000 C   0  0  0  0  0  0  0  0  0  0  0  0
    1.4440   -2.7799    0.0000 C   0  0  0  0  0  0  0  0  0  0  0  0
    2.2561   -2.6347    0.0000 C   0  0  0  0  0  0  0  0  0  0  0  0
    3.0683   -2.4895    0.0000 C   0  0  3  0  0  0  0  0  0  0  0  0
    3.1278   -3.3123    0.0000 O   0  0  0  0  0  0  0  0  0  0  0  0
    2.8390   -1.6970    0.0000 C   0  0  0  0  0  0  0  0  0  0  0  0
    3.5218   -1.2340    0.0000 C   0  0  0  0  0  0  0  0  0  0  0  0
    4.1731   -1.7404    0.0000 C   0  0  3  0  0  0  0  0  0  0  0  0
    4.9853   -1.5952    0.0000 C   0  0  3  0  0  0  0  0  0  0  0  0
    5.2655   -0.8192    0.0000 C   0  0  0  0  0  0  0  0  0  0  0  0
    6.0777   -0.6740    0.0000 C   0  0  0  0  0  0  0  0  0  0  0  0
    6.6095   -1.3047    0.0000 C   0  0  0  0  0  0  0  0  0  0  0  0
    7.4216   -1.1595    0.0000 C   0  0  0  0  0  0  0  0  0  0  0  0
    7.9534   -1.7902    0.0000 C   0  0  0  0  0  0  0  0  0  0  0  0
    8.7655   -1.6450    0.0000 O   0  0  0  0  0  0  0  0  0  0  0  0
    7.6731   -2.5662    0.0000 C   0  0  0  0  0  0  0  0  0  0  0  0
    6.8610   -2.7114    0.0000 C   0  0  0  0  0  0  0  0  0  0  0  0
    6.3292   -2.0807    0.0000 C   0  0  0  0  0  0  0  0  0  0  0  0
    5.5171   -2.2259    0.0000 C   0  0  0  0  0  0  0  0  0  0  0  0
    5.2368   -3.0018    0.0000 C   0  0  3  0  0  0  0  0  0  0  0  0
    4.4247   -3.1470    0.0000 C   0  0  0  0  0  0  0  0  0  0  0  0
    3.8928   -2.5163    0.0000 C   0  0  3  0  0  0  0  0  0  0  0  0
    3.5330   -3.2587    0.0000 C   0  0  0  0  0  0  0  0  0  0  0  0
    5.7686   -3.6325    0.0000 C   0  0  0  0  0  0  0  0  0  0  0  0
    6.5807   -3.4873    0.0000 C   0  0  0  0  0  0  0  0  0  0  0  0
    7.1125   -4.1180    0.0000 C   0  0  0  0  0  0  0  0  0  0  0  0
    6.8322   -4.8939    0.0000 C   0  0  0  0  0  0  0  0  0  0  0  0
    6.0201   -5.0391    0.0000 C   0  0  0  0  0  0  0  0  0  0  0  0
    5.4883   -4.4084    0.0000 C   0  0  0  0  0  0  0  0  0  0  0  0
    7.3640   -5.5246    0.0000 N   0  0  0  0  0  0  0  0  0  0  0  0
    7.0838   -6.3006    0.0000 C   0  0  0  0  0  0  0  0  0  0  0  0
    8.1762   -5.3794    0.0000 C   0  0  0  0  0  0  0  0  0  0  0  0
  1  2  1  0  0  0  0
  2  3  3  0  0  0  0
  3  4  1  0  0  0  0
  4  5  1  0  0  0  0
  4  6  1  0  0  0  0
  4 22  1  0  0  0  0
  6  7  1  0  0  0  0
  7  8  1  0  0  0  0
  8  9  1  0  0  0  0
  8 22  1  0  0  0  0
  9 10  1  0  0  0  0
  9 19  1  0  0  0  0
 10 11  1  0  0  0  0
 11 12  1  0  0  0  0
 12 13  2  0  0  0  0
 12 18  1  0  0  0  0
 13 14  1  0  0  0  0
 14 15  2  0  0  0  0
 14 16  1  0  0  0  0
 16 17  1  0  0  0  0
 17 18  1  0  0  0  0
 18 19  2  0  0  0  0
 19 20  1  0  0  0  0
 20 21  1  0  0  0  0
 20 24  1  0  0  0  0
 21 22  1  0  0  0  0
 22 23  1  0  0  0  0
 24 25  2  0  0  0  0
 24 29  1  0  0  0  0
 25 26  1  0  0  0  0
 26 27  2  0  0  0  0
 27 28  1  0  0  0  0
 27 30  1  0  0  0  0
 28 29  2  0  0  0  0
 30 31  1  0  0  0  0
 30 32  1  0  0  0  0
M  END
$$$$

 OpenBabel12191814062D

 24 27  0  0  0  0  0  0  0  0999 V2000
    1.9758   -3.4106    0.0000 C   0  0  0  0  0  0  0  0  0  0  0  0
    2.2561   -2.6347    0.0000 C   0  0  0  0  0  0  0  0  0  0  0  0
    1.7243   -2.0040    0.0000 O   0  0  0  0  0  0  0  0  0  0  0  0
    3.0683   -2.4895    0.0000 C   0  0  3  0  0  0  0  0  0  0  0  0
    3.1278   -3.3123    0.0000 O   0  0  0  0  0  0  0  0  0  0  0  0
    2.8390   -1.6970    0.0000 C   0  0  0  0  0  0  0  0  0  0  0  0
    3.5218   -1.2340    0.0000 C   0  0  0  0  0  0  0  0  0  0  0  0
    4.1731   -1.7404    0.0000 C   0  0  3  0  0  0  0  0  0  0  0  0
    4.9853   -1.5952    0.0000 C   0  0  3  0  0  0  0  0  0  0  0  0
    5.2655   -0.8192    0.0000 C   0  0  0  0  0  0  0  0  0  0  0  0
    6.0777   -0.6740    0.0000 C   0  0  0  0  0  0  0  0  0  0  0  0
    6.6095   -1.3047    0.0000 C   0  0  0  0  0  0  0  0  0  0  0  0
    7.4216   -1.1595    0.0000 C   0  0  0  0  0  0  0  0  0  0  0  0
    7.9534   -1.7902    0.0000 C   0  0  0  0  0  0  0  0  0  0  0  0
    8.7655   -1.6450    0.0000 O   0  0  0  0  0  0  0  0  0  0  0  0
    7.6731   -2.5662    0.0000 C   0  0  0  0  0  0  0  0  0  0  0  0
    6.8610   -2.7114    0.0000 C   0  0  0  0  0  0  0  0  0  0  0  0
    6.3292   -2.0807    0.0000 C   0  0  3  0  0  0  0  0  0  0  0  0
    6.0489   -2.8566    0.0000 C   0  0  0  0  0  0  0  0  0  0  0  0
    5.5171   -2.2259    0.0000 C   0  0  3  0  0  0  0  0  0  0  0  0
    5.2368   -3.0018    0.0000 C   0  0  0  0  0  0  0  0  0  0  0  0
    4.4247   -3.1470    0.0000 C   0  0  0  0  0  0  0  0  0  0  0  0
    3.8928   -2.5163    0.0000 C   0  0  3  0  0  0  0  0  0  0  0  0
    3.5330   -3.2587    0.0000 C   0  0  0  0  0  0  0  0  0  0  0  0
  1  2  1  0  0  0  0
  2  3  2  0  0  0  0
  2  4  1  0  0  0  0
  4  5  1  0  0  0  0
  4  6  1  0  0  0  0
  4 23  1  0  0  0  0
  6  7  1  0  0  0  0
  7  8  1  0  0  0  0
  8  9  1  0  0  0  0
  8 23  1  0  0  0  0
  9 10  1  0  0  0  0
  9 20  1  0  0  0  0
 10 11  1  0  0  0  0
 11 12  1  0  0  0  0
 12 13  2  0  0  0  0
 12 18  1  0  0  0  0
 13 14  1  0  0  0  0
 14 15  2  0  0  0  0
 14 16  1  0  0  0  0
 16 17  1  0  0  0  0
 17 18  1  0  0  0  0
 18 19  1  0  0  0  0
 18 20  1  0  0  0  0
 20 21  1  0  0  0  0
 21 22  1  0  0  0  0
 22 23  1  0  0  0  0
 23 24  1  0  0  0  0
M  END
$$$$

 OpenBabel12191814062D

 21 22  0  0  0  0  0  0  0  0999 V2000
    1.4289   -0.0000    0.0000 C   0  0  0  0  0  0  0  0  0  0  0  0
    0.7145   -0.4125    0.0000 C   0  0  0  0  0  0  0  0  0  0  0  0
    0.0000    0.0000    0.0000 O   0  0  0  0  0  0  0  0  0  0  0  0
    0.7145   -1.2375    0.0000 C   0  0  0  0  0  0  0  0  0  0  0  0
    1.4289   -1.6500    0.0000 C   0  0  0  0  0  0  0  0  0  0  0  0
    2.1434   -1.2375    0.0000 C   0  0  0  0  0  0  0  0  0  0  0  0
    1.4289   -2.4750    0.0000 N   0  0  0  0  0  0  0  0  0  0  0  0
    0.7145   -2.8875    0.0000 C   0  0  0  0  0  0  0  0  0  0  0  0
    0.7145   -3.7125    0.0000 C   0  0  0  0  0  0  0  0  0  0  0  0
    0.0000   -2.4750    0.0000 C   0  0  0  0  0  0  0  0  0  0  0  0
    0.0000   -1.6500    0.0000 C   0  0  3  0  0  0  0  0  0  0  0  0
   -0.7145   -1.2375    0.0000 C   0  0  0  0  0  0  0  0  0  0  0  0
   -1.4289   -1.6500    0.0000 C   0  0  0  0  0  0  0  0  0  0  0  0
   -2.1434   -1.2375    0.0000 C   0  0  0  0  0  0  0  0  0  0  0  0
   -2.1434   -0.4125    0.0000 C   0  0  0  0  0  0  0  0  0  0  0  0
   -2.8579    0.0000    0.0000 Cl  0  0  0  0  0  0  0  0  0  0  0  0
   -1.4289   -0.0000    0.0000 C   0  0  0  0  0  0  0  0  0  0  0  0
   -0.7145   -0.4125    0.0000 C   0  0  0  0  0  0  0  0  0  0  0  0
   -0.7145   -2.8875    0.0000 C   0  0  0  0  0  0  0  0  0  0  0  0
   -1.4289   -2.4750    0.0000 C   0  0  0  0  0  0  0  0  0  0  0  0
   -0.7145   -3.7125    0.0000 O   0  0  0  0  0  0  0  0  0  0  0  0
  1  2  1  0  0  0  0
  2  3  2  0  0  0  0
  2  4  1  0  0  0  0
  4  5  2  0  0  0  0
  4 11  1  0  0  0  0
  5  6  1  0  0  0  0
  5  7  1  0  0  0  0
  7  8  1  0  0  0  0
  8  9  1  0  0  0  0
  8 10  2  0  0  0  0
 10 11  1  0  0  0  0
 10 19  1  0  0  0  0
 11 12  1  0  0  0  0
 12 13  2  0  0  0  0
 12 18  1  0  0  0  0
 13 14  1  0  0  0  0
 14 15  2  0  0  0  0
 15 16  1  0  0  0  0
 15 17  1  0  0  0  0
 17 18  2  0  0  0  0
 19 20  1  0  0  0  0
 19 21  2  0  0  0  0
M  END
$$$$

 OpenBabel12191814062D

 23 26  0  0  0  0  0  0  0  0999 V2000
    1.7447   -3.0280    0.0000 C   0  0  0  0  0  0  0  0  0  0  0  0
    2.5619   -3.1408    0.0000 C   0  0  0  0  0  0  0  0  0  0  0  0
    2.8728   -3.9050    0.0000 O   0  0  0  0  0  0  0  0  0  0  0  0
    3.0683   -2.4895    0.0000 C   0  0  0  0  0  0  0  0  0  0  0  0
    2.8390   -1.6970    0.0000 C   0  0  0  0  0  0  0  0  0  0  0  0
    3.5218   -1.2340    0.0000 C   0  0  0  0  0  0  0  0  0  0  0  0
    4.1731   -1.7404    0.0000 C   0  0  3  0  0  0  0  0  0  0  0  0
    4.9853   -1.5952    0.0000 C   0  0  3  0  0  0  0  0  0  0  0  0
    5.2655   -0.8192    0.0000 C   0  0  0  0  0  0  0  0  0  0  0  0
    6.0777   -0.6740    0.0000 C   0  0  0  0  0  0  0  0  0  0  0  0
    6.6095   -1.3047    0.0000 C   0  0  0  0  0  0  0  0  0  0  0  0
    7.4216   -1.1595    0.0000 C   0  0  0  0  0  0  0  0  0  0  0  0
    7.9534   -1.7902    0.0000 C   0  0  0  0  0  0  0  0  0  0  0  0
    8.7655   -1.6450    0.0000 O   0  0  0  0  0  0  0  0  0  0  0  0
    7.6731   -2.5662    0.0000 C   0  0  0  0  0  0  0  0  0  0  0  0
    6.8610   -2.7114    0.0000 C   0  0  0  0  0  0  0  0  0  0  0  0
    6.3292   -2.0807    0.0000 C   0  0  3  0  0  0  0  0  0  0  0  0
    6.0489   -2.8566    0.0000 C   0  0  0  0  0  0  0  0  0  0  0  0
    5.5171   -2.2259    0.0000 C   0  0  3  0  0  0  0  0  0  0  0  0
    5.2368   -3.0018    0.0000 C   0  0  0  0  0  0  0  0  0  0  0  0
    4.4247   -3.1470    0.0000 C   0  0  0  0  0  0  0  0  0  0  0  0
    3.8928   -2.5163    0.0000 C   0  0  3  0  0  0  0  0  0  0  0  0
    3.5330   -3.2587    0.0000 C   0  0  0  0  0  0  0  0  0  0  0  0
  1  2  1  0  0  0  0
  2  3  2  0  0  0  0
  2  4  1  0  0  0  0
  4  5  2  0  0  0  0
  4 22  1  0  0  0  0
  5  6  1  0  0  0  0
  6  7  1  0  0  0  0
  7  8  1  0  0  0  0
  7 22  1  0  0  0  0
  8  9  1  0  0  0  0
  8 19  1  0  0  0  0
  9 10  1  0  0  0  0
 10 11  1  0  0  0  0
 11 12  2  0  0  0  0
 11 17  1  0  0  0  0
 12 13  1  0  0  0  0
 13 14  2  0  0  0  0
 13 15  1  0  0  0  0
 15 16  1  0  0  0  0
 16 17  1  0  0  0  0
 17 18  1  0  0  0  0
 17 19  1  0  0  0  0
 19 20  1  0  0  0  0
 20 21  1  0  0  0  0
 21 22  1  0  0  0  0
 22 23  1  0  0  0  0
M  END
$$$$

 OpenBabel12191814062D

 25 27  0  0  0  0  0  0  0  0999 V2000
    0.7145   -1.2375    0.0000 C   0  0  0  0  0  0  0  0  0  0  0  0
    1.4289   -1.6500    0.0000 C   0  0  0  0  0  0  0  0  0  0  0  0
    2.1434   -1.2375    0.0000 O   0  0  0  0  0  0  0  0  0  0  0  0
    1.4289   -2.4750    0.0000 C   0  0  0  0  0  0  0  0  0  0  0  0
    2.1434   -2.8875    0.0000 C   0  0  0  0  0  0  0  0  0  0  0  0
    2.1434   -3.7125    0.0000 N   0  0  0  0  0  0  0  0  0  0  0  0
    1.4289   -4.1250    0.0000 C   0  0  0  0  0  0  0  0  0  0  0  0
    0.7145   -3.7125    0.0000 C   0  0  0  0  0  0  0  0  0  0  0  0
    0.7145   -2.8875    0.0000 C   0  0  3  0  0  0  0  0  0  0  0  0
    0.0000   -2.4750    0.0000 C   0  0  0  0  0  0  0  0  0  0  0  0
   -0.7145   -2.8875    0.0000 C   0  0  0  0  0  0  0  0  0  0  0  0
   -1.4289   -2.4750    0.0000 C   0  0  0  0  0  0  0  0  0  0  0  0
   -1.4289   -1.6500    0.0000 C   0  0  0  0  0  0  0  0  0  0  0  0
   -2.1434   -1.2375    0.0000 C   0  0  0  0  0  0  0  0  0  0  0  0
   -0.7145   -1.2375    0.0000 C   0  0  0  0  0  0  0  0  0  0  0  0
    0.0000   -1.6500    0.0000 C   0  0  0  0  0  0  0  0  0  0  0  0
    2.8579   -4.1250    0.0000 C   0  0  0  0  0  0  0  0  0  0  0  0
    2.8579   -4.9500    0.0000 O   0  0  0  0  0  0  0  0  0  0  0  0
    3.5724   -3.7125    0.0000 O   0  0  0  0  0  0  0  0  0  0  0  0
    4.2868   -4.1250    0.0000 C   0  0  0  0  0  0  0  0  0  0  0  0
    5.0013   -3.7125    0.0000 C   0  0  0  0  0  0  0  0  0  0  0  0
    5.7158   -4.1250    0.0000 C   0  0  0  0  0  0  0  0  0  0  0  0
    5.7158   -4.9500    0.0000 C   0  0  0  0  0  0  0  0  0  0  0  0
    5.0013   -5.3625    0.0000 C   0  0  0  0  0  0  0  0  0  0  0  0
    4.2868   -4.9500    0.0000 C   0  0  0  0  0  0  0  0  0  0  0  0
  1  2  1  0  0  0  0
  2  3  2  0  0  0  0
  2  4  1  0  0  0  0
  4  5  2  0  0  0  0
  4  9  1  0  0  0  0
  5  6  1  0  0  0  0
  6  7  1  0  0  0  0
  6 17  1  0  0  0  0
  7  8  2  0  0  0  0
  8  9  1  0  0  0  0
  9 10  1  0  0  0  0
 10 11  2  0  0  0  0
 10 16  1  0  0  0  0
 11 12  1  0  0  0  0
 12 13  2  0  0  0  0
 13 14  1  0  0  0  0
 13 15  1  0  0  0  0
 15 16  2  0  0  0  0
 17 18  2  0  0  0  0
 17 19  1  0  0  0  0
 19 20  1  0  0  0  0
 20 21  2  0  0  0  0
 20 25  1  0  0  0  0
 21 22  1  0  0  0  0
 22 23  2  0  0  0  0
 23 24  1  0  0  0  0
 24 25  2  0  0  0  0
M  END
$$$$

 OpenBabel12191814062D

 36 39  0  0  0  0  0  0  0  0999 V2000
   -3.8837   -1.4124    0.0000 C   0  0  0  0  0  0  0  0  0  0  0  0
   -3.0587   -1.4124    0.0000 C   0  0  0  0  0  0  0  0  0  0  0  0
   -2.6462   -2.1269    0.0000 O   0  0  0  0  0  0  0  0  0  0  0  0
   -2.6462   -0.6979    0.0000 C   0  0  0  0  0  0  0  0  0  0  0  0
   -3.0587    0.0165    0.0000 C   0  0  0  0  0  0  0  0  0  0  0  0
   -3.8837    0.0165    0.0000 C   0  0  0  0  0  0  0  0  0  0  0  0
   -2.6462    0.7310    0.0000 C   0  0  0  0  0  0  0  0  0  0  0  0
   -1.8212    0.7310    0.0000 C   0  0  0  0  0  0  0  0  0  0  0  0
   -1.4087    1.4455    0.0000 C   0  0  0  0  0  0  0  0  0  0  0  0
   -1.4087    0.0165    0.0000 C   0  0  0  0  0  0  0  0  0  0  0  0
   -0.5837    0.0165    0.0000 C   0  0  0  0  0  0  0  0  0  0  0  0
   -0.1712   -0.6979    0.0000 S   0  0  0  0  0  0  0  0  0  0  0  0
    0.6538   -0.6979    0.0000 C   0  0  0  0  0  0  0  0  0  0  0  0
    1.1387   -0.0305    0.0000 N   0  0  0  0  0  0  0  0  0  0  0  0
    1.9233   -0.2854    0.0000 C   0  0  0  0  0  0  0  0  0  0  0  0
    2.6378    0.1271    0.0000 C   0  0  0  0  0  0  0  0  0  0  0  0
    3.3523   -0.2854    0.0000 C   0  0  0  0  0  0  0  0  0  0  0  0
    3.3523   -1.1104    0.0000 C   0  0  0  0  0  0  0  0  0  0  0  0
    4.0668   -1.5229    0.0000 N   0  0  0  0  0  0  0  0  0  0  0  0
    4.7812   -1.1104    0.0000 C   0  0  0  0  0  0  0  0  0  0  0  0
    4.7812   -0.2854    0.0000 O   0  0  0  0  0  0  0  0  0  0  0  0
    5.4957   -1.5229    0.0000 C   0  0  0  0  0  0  0  0  0  0  0  0
    6.2102   -1.1104    0.0000 C   0  0  0  0  0  0  0  0  0  0  0  0
    6.9246   -1.5229    0.0000 C   0  0  0  0  0  0  0  0  0  0  0  0
    6.9246   -2.3479    0.0000 C   0  0  0  0  0  0  0  0  0  0  0  0
    6.2102   -2.7604    0.0000 C   0  0  0  0  0  0  0  0  0  0  0  0
    5.4957   -2.3479    0.0000 C   0  0  0  0  0  0  0  0  0  0  0  0
    7.6391   -2.7604    0.0000 C   0  0  0  0  0  0  0  0  0  0  0  0
    8.3536   -3.1729    0.0000 C   0  0  0  0  0  0  0  0  0  0  0  0
    7.2266   -3.4749    0.0000 C   0  0  0  0  0  0  0  0  0  0  0  0
    8.0516   -2.0460    0.0000 C   0  0  0  0  0  0  0  0  0  0  0  0
    2.6378   -1.5229    0.0000 C   0  0  0  0  0  0  0  0  0  0  0  0
    1.9233   -1.1104    0.0000 C   0  0  0  0  0  0  0  0  0  0  0  0
    1.1387   -1.3654    0.0000 S   0  0  0  0  0  0  0  0  0  0  0  0
   -1.8212   -0.6979    0.0000 C   0  0  0  0  0  0  0  0  0  0  0  0
   -1.4087   -1.4124    0.0000 C   0  0  0  0  0  0  0  0  0  0  0  0
  1  2  1  0  0  0  0
  2  3  2  0  0  0  0
  2  4  1  0  0  0  0
  4  5  2  0  0  0  0
  4 35  1  0  0  0  0
  5  6  1  0  0  0  0
  5  7  1  0  0  0  0
  7  8  2  0  0  0  0
  8  9  1  0  0  0  0
  8 10  1  0  0  0  0
 10 11  1  0  0  0  0
 10 35  2  0  0  0  0
 11 12  1  0  0  0  0
 12 13  1  0  0  0  0
 13 14  2  0  0  0  0
 13 34  1  0  0  0  0
 14 15  1  0  0  0  0
 15 16  2  0  0  0  0
 15 33  1  0  0  0  0
 16 17  1  0  0  0  0
 17 18  2  0  0  0  0
 18 19  1  0  0  0  0
 18 32  1  0  0  0  0
 19 20  1  0  0  0  0
 20 21  2  0  0  0  0
 20 22  1  0  0  0  0
 22 23  2  0  0  0  0
 22 27  1  0  0  0  0
 23 24  1  0  0  0  0
 24 25  2  0  0  0  0
 25 26  1  0  0  0  0
 25 28  1  0  0  0  0
 26 27  2  0  0  0  0
 28 29  1  0  0  0  0
 28 30  1  0  0  0  0
 28 31  1  0  0  0  0
 32 33  2  0  0  0  0
 33 34  1  0  0  0  0
 35 36  1  0  0  0  0
M  END
$$$$

 OpenBabel12191814062D

 36 40  0  0  0  0  0  0  0  0999 V2000
   -1.0258   -3.8874    0.0000 C   0  0  0  0  0  0  0  0  0  0  0  0
   -0.2008   -3.8874    0.0000 C   0  0  0  0  0  0  0  0  0  0  0  0
    0.2117   -4.6019    0.0000 O   0  0  0  0  0  0  0  0  0  0  0  0
    0.2117   -3.1729    0.0000 C   0  0  0  0  0  0  0  0  0  0  0  0
   -0.2008   -2.4585    0.0000 C   0  0  0  0  0  0  0  0  0  0  0  0
   -1.0258   -2.4585    0.0000 C   0  0  0  0  0  0  0  0  0  0  0  0
    0.2117   -1.7440    0.0000 C   0  0  0  0  0  0  0  0  0  0  0  0
    1.0367   -1.7440    0.0000 C   0  0  0  0  0  0  0  0  0  0  0  0
    1.4492   -1.0295    0.0000 C   0  0  0  0  0  0  0  0  0  0  0  0
    1.4492   -2.4585    0.0000 C   0  0  0  0  0  0  0  0  0  0  0  0
    2.2742   -2.4585    0.0000 C   0  0  0  0  0  0  0  0  0  0  0  0
    2.6867   -3.1729    0.0000 S   0  0  0  0  0  0  0  0  0  0  0  0
    3.5117   -3.1729    0.0000 C   0  0  0  0  0  0  0  0  0  0  0  0
    3.9966   -2.5055    0.0000 N   0  0  0  0  0  0  0  0  0  0  0  0
    4.7812   -2.7604    0.0000 C   0  0  0  0  0  0  0  0  0  0  0  0
    5.4957   -2.3479    0.0000 C   0  0  0  0  0  0  0  0  0  0  0  0
    6.2102   -2.7604    0.0000 C   0  0  0  0  0  0  0  0  0  0  0  0
    6.2102   -3.5854    0.0000 C   0  0  0  0  0  0  0  0  0  0  0  0
    6.9246   -3.9979    0.0000 N   0  0  0  0  0  0  0  0  0  0  0  0
    7.6391   -3.5854    0.0000 C   0  0  0  0  0  0  0  0  0  0  0  0
    8.3536   -3.9979    0.0000 O   0  0  0  0  0  0  0  0  0  0  0  0
    7.6391   -2.7604    0.0000 C   0  0  0  0  0  0  0  0  0  0  0  0
    6.9246   -2.3479    0.0000 C   0  0  0  0  0  0  0  0  0  0  0  0
    6.9246   -1.5229    0.0000 C   0  0  0  0  0  0  0  0  0  0  0  0
    7.6391   -1.1104    0.0000 C   0  0  0  0  0  0  0  0  0  0  0  0
    8.3536   -1.5229    0.0000 C   0  0  0  0  0  0  0  0  0  0  0  0
    9.0681   -1.1104    0.0000 C   0  0  0  0  0  0  0  0  0  0  0  0
    9.7825   -1.5229    0.0000 C   0  0  0  0  0  0  0  0  0  0  0  0
    9.7825   -2.3479    0.0000 C   0  0  0  0  0  0  0  0  0  0  0  0
    9.0681   -2.7604    0.0000 C   0  0  0  0  0  0  0  0  0  0  0  0
    8.3536   -2.3479    0.0000 C   0  0  0  0  0  0  0  0  0  0  0  0
    5.4957   -3.9979    0.0000 C   0  0  0  0  0  0  0  0  0  0  0  0
    4.7812   -3.5854    0.0000 C   0  0  0  0  0  0  0  0  0  0  0  0
    3.9966   -3.8404    0.0000 S   0  0  0  0  0  0  0  0  0  0  0  0
    1.0367   -3.1729    0.0000 C   0  0  0  0  0  0  0  0  0  0  0  0
    1.4492   -3.8874    0.0000 C   0  0  0  0  0  0  0  0  0  0  0  0
  1  2  1  0  0  0  0
  2  3  2  0  0  0  0
  2  4  1  0  0  0  0
  4  5  2  0  0  0  0
  4 35  1  0  0  0  0
  5  6  1  0  0  0  0
  5  7  1  0  0  0  0
  7  8  2  0  0  0  0
  8  9  1  0  0  0  0
  8 10  1  0  0  0  0
 10 11  1  0  0  0  0
 10 35  2  0  0  0  0
 11 12  1  0  0  0  0
 12 13  1  0  0  0  0
 13 14  2  0  0  0  0
 13 34  1  0  0  0  0
 14 15  1  0  0  0  0
 15 16  2  0  0  0  0
 15 33  1  0  0  0  0
 16 17  1  0  0  0  0
 17 18  2  0  0  0  0
 18 19  1  0  0  0  0
 18 32  1  0  0  0  0
 19 20  1  0  0  0  0
 20 21  2  0  0  0  0
 20 22  1  0  0  0  0
 22 23  2  0  0  0  0
 22 31  1  0  0  0  0
 23 24  1  0  0  0  0
 24 25  2  0  0  0  0
 25 26  1  0  0  0  0
 26 27  2  0  0  0  0
 26 31  1  0  0  0  0
 27 28  1  0  0  0  0
 28 29  2  0  0  0  0
 29 30  1  0  0  0  0
 30 31  2  0  0  0  0
 32 33  2  0  0  0  0
 33 34  1  0  0  0  0
 35 36  1  0  0  0  0
M  END
$$$$

 OpenBabel12191814062D

 34 37  0  0  0  0  0  0  0  0999 V2000
   -3.8837   -1.4124    0.0000 C   0  0  0  0  0  0  0  0  0  0  0  0
   -3.0587   -1.4124    0.0000 C   0  0  0  0  0  0  0  0  0  0  0  0
   -2.6462   -2.1269    0.0000 O   0  0  0  0  0  0  0  0  0  0  0  0
   -2.6462   -0.6979    0.0000 C   0  0  0  0  0  0  0  0  0  0  0  0
   -3.0587    0.0165    0.0000 C   0  0  0  0  0  0  0  0  0  0  0  0
   -3.8837    0.0165    0.0000 C   0  0  0  0  0  0  0  0  0  0  0  0
   -2.6462    0.7310    0.0000 C   0  0  0  0  0  0  0  0  0  0  0  0
   -1.8212    0.7310    0.0000 C   0  0  0  0  0  0  0  0  0  0  0  0
   -1.4087    1.4455    0.0000 C   0  0  0  0  0  0  0  0  0  0  0  0
   -1.4087    0.0165    0.0000 C   0  0  0  0  0  0  0  0  0  0  0  0
   -0.5837    0.0165    0.0000 C   0  0  0  0  0  0  0  0  0  0  0  0
   -0.1712   -0.6979    0.0000 S   0  0  0  0  0  0  0  0  0  0  0  0
    0.6538   -0.6979    0.0000 C   0  0  0  0  0  0  0  0  0  0  0  0
    1.1387   -0.0305    0.0000 N   0  0  0  0  0  0  0  0  0  0  0  0
    1.9233   -0.2854    0.0000 C   0  0  0  0  0  0  0  0  0  0  0  0
    2.6378    0.1271    0.0000 C   0  0  0  0  0  0  0  0  0  0  0  0
    3.3523   -0.2854    0.0000 C   0  0  0  0  0  0  0  0  0  0  0  0
    3.3523   -1.1104    0.0000 C   0  0  0  0  0  0  0  0  0  0  0  0
    4.0668   -1.5229    0.0000 N   0  0  0  0  0  0  0  0  0  0  0  0
    4.7812   -1.1104    0.0000 C   0  0  0  0  0  0  0  0  0  0  0  0
    4.7812   -0.2854    0.0000 O   0  0  0  0  0  0  0  0  0  0  0  0
    5.4957   -1.5229    0.0000 C   0  0  0  0  0  0  0  0  0  0  0  0
    6.2102   -1.1104    0.0000 C   0  0  0  0  0  0  0  0  0  0  0  0
    6.9246   -1.5229    0.0000 C   0  0  0  0  0  0  0  0  0  0  0  0
    7.6391   -1.1104    0.0000 C   0  0  0  0  0  0  0  0  0  0  0  0
    8.3536   -1.5229    0.0000 C   0  0  0  0  0  0  0  0  0  0  0  0
    8.3536   -2.3479    0.0000 C   0  0  0  0  0  0  0  0  0  0  0  0
    7.6391   -2.7604    0.0000 C   0  0  0  0  0  0  0  0  0  0  0  0
    6.9246   -2.3479    0.0000 C   0  0  0  0  0  0  0  0  0  0  0  0
    2.6378   -1.5229    0.0000 C   0  0  0  0  0  0  0  0  0  0  0  0
    1.9233   -1.1104    0.0000 C   0  0  0  0  0  0  0  0  0  0  0  0
    1.1387   -1.3654    0.0000 S   0  0  0  0  0  0  0  0  0  0  0  0
   -1.8212   -0.6979    0.0000 C   0  0  0  0  0  0  0  0  0  0  0  0
   -1.4087   -1.4124    0.0000 C   0  0  0  0  0  0  0  0  0  0  0  0
  1  2  1  0  0  0  0
  2  3  2  0  0  0  0
  2  4  1  0  0  0  0
  4  5  2  0  0  0  0
  4 33  1  0  0  0  0
  5  6  1  0  0  0  0
  5  7  1  0  0  0  0
  7  8  2  0  0  0  0
  8  9  1  0  0  0  0
  8 10  1  0  0  0  0
 10 11  1  0  0  0  0
 10 33  2  0  0  0  0
 11 12  1  0  0  0  0
 12 13  1  0  0  0  0
 13 14  2  0  0  0  0
 13 32  1  0  0  0  0
 14 15  1  0  0  0  0
 15 16  2  0  0  0  0
 15 31  1  0  0  0  0
 16 17  1  0  0  0  0
 17 18  2  0  0  0  0
 18 19  1  0  0  0  0
 18 30  1  0  0  0  0
 19 20  1  0  0  0  0
 20 21  2  0  0  0  0
 20 22  1  0  0  0  0
 22 23  1  0  0  0  0
 23 24  1  0  0  0  0
 24 25  2  0  0  0  0
 24 29  1  0  0  0  0
 25 26  1  0  0  0  0
 26 27  2  0  0  0  0
 27 28  1  0  0  0  0
 28 29  2  0  0  0  0
 30 31  2  0  0  0  0
 31 32  1  0  0  0  0
 33 34  1  0  0  0  0
M  END
$$$$

 OpenBabel12191814062D

 31 33  0  0  0  0  0  0  0  0999 V2000
   -2.8579   -4.1250    0.0000 C   0  0  0  0  0  0  0  0  0  0  0  0
   -2.1434   -3.7125    0.0000 C   0  0  0  0  0  0  0  0  0  0  0  0
   -2.1434   -2.8875    0.0000 O   0  0  0  0  0  0  0  0  0  0  0  0
   -1.4289   -4.1250    0.0000 C   0  0  0  0  0  0  0  0  0  0  0  0
   -0.7145   -3.7125    0.0000 C   0  0  0  0  0  0  0  0  0  0  0  0
    0.0000   -4.1250    0.0000 C   0  0  0  0  0  0  0  0  0  0  0  0
    0.7145   -3.7125    0.0000 C   0  0  0  0  0  0  0  0  0  0  0  0
    1.4289   -4.1250    0.0000 C   0  0  0  0  0  0  0  0  0  0  0  0
    0.7145   -2.8875    0.0000 O   0  0  0  0  0  0  0  0  0  0  0  0
    0.0000   -4.9500    0.0000 C   0  0  0  0  0  0  0  0  0  0  0  0
    0.7145   -5.3625    0.0000 O   0  0  0  0  0  0  0  0  0  0  0  0
    1.4289   -4.9500    0.0000 C   0  0  0  0  0  0  0  0  0  0  0  0
    2.1434   -5.3625    0.0000 C   0  0  3  0  0  0  0  0  0  0  0  0
    2.1434   -6.1875    0.0000 O   0  0  0  0  0  0  0  0  0  0  0  0
    2.8579   -4.9500    0.0000 C   0  0  0  0  0  0  0  0  0  0  0  0
    3.5724   -5.3625    0.0000 N   0  0  0  0  0  0  0  0  0  0  0  0
    4.2868   -4.9500    0.0000 C   0  0  0  0  0  0  0  0  0  0  0  0
    5.0013   -5.3625    0.0000 C   0  0  0  0  0  0  0  0  0  0  0  0
    5.0013   -6.1875    0.0000 N   0  0  0  0  0  0  0  0  0  0  0  0
    4.2868   -6.6000    0.0000 C   0  0  0  0  0  0  0  0  0  0  0  0
    3.5724   -6.1875    0.0000 C   0  0  0  0  0  0  0  0  0  0  0  0
    5.7158   -6.6000    0.0000 C   0  0  0  0  0  0  0  0  0  0  0  0
    6.4302   -6.1875    0.0000 C   0  0  0  0  0  0  0  0  0  0  0  0
    7.1447   -6.6000    0.0000 C   0  0  0  0  0  0  0  0  0  0  0  0
    7.1447   -7.4250    0.0000 C   0  0  0  0  0  0  0  0  0  0  0  0
    6.4302   -7.8375    0.0000 C   0  0  0  0  0  0  0  0  0  0  0  0
    5.7158   -7.4250    0.0000 C   0  0  0  0  0  0  0  0  0  0  0  0
    5.0013   -7.8375    0.0000 C   0  0  0  0  0  0  0  0  0  0  0  0
   -0.7145   -5.3625    0.0000 C   0  0  0  0  0  0  0  0  0  0  0  0
   -1.4289   -4.9500    0.0000 C   0  0  0  0  0  0  0  0  0  0  0  0
   -2.1434   -5.3625    0.0000 C   0  0  0  0  0  0  0  0  0  0  0  0
  1  2  1  0  0  0  0
  2  3  2  0  0  0  0
  2  4  1  0  0  0  0
  4  5  2  0  0  0  0
  4 30  1  0  0  0  0
  5  6  1  0  0  0  0
  6  7  1  0  0  0  0
  6 10  2  0  0  0  0
  7  8  1  0  0  0  0
  7  9  2  0  0  0  0
 10 11  1  0  0  0  0
 10 29  1  0  0  0  0
 11 12  1  0  0  0  0
 12 13  1  0  0  0  0
 13 14  1  0  0  0  0
 13 15  1  0  0  0  0
 15 16  1  0  0  0  0
 16 17  1  0  0  0  0
 16 21  1  0  0  0  0
 17 18  1  0  0  0  0
 18 19  1  0  0  0  0
 19 20  1  0  0  0  0
 19 22  1  0  0  0  0
 20 21  1  0  0  0  0
 22 23  2  0  0  0  0
 22 27  1  0  0  0  0
 23 24  1  0  0  0  0
 24 25  2  0  0  0  0
 25 26  1  0  0  0  0
 26 27  2  0  0  0  0
 27 28  1  0  0  0  0
 29 30  2  0  0  0  0
 30 31  1  0  0  0  0
M  END
$$$$

 OpenBabel12191814062D

 21 22  0  0  0  0  0  0  0  0999 V2000
    0.0000   -4.1250    0.0000 C   0  0  0  0  0  0  0  0  0  0  0  0
   -0.7145   -3.7125    0.0000 C   0  0  0  0  0  0  0  0  0  0  0  0
   -1.4289   -4.1250    0.0000 O   0  0  0  0  0  0  0  0  0  0  0  0
   -0.7145   -2.8875    0.0000 C   0  0  0  0  0  0  0  0  0  0  0  0
   -1.4289   -2.4750    0.0000 C   0  0  0  0  0  0  0  0  0  0  0  0
   -1.4289   -1.6500    0.0000 C   0  0  0  0  0  0  0  0  0  0  0  0
   -2.1434   -1.2375    0.0000 C   0  0  0  0  0  0  0  0  0  0  0  0
   -0.7145   -1.2375    0.0000 C   0  0  0  0  0  0  0  0  0  0  0  0
    0.0000   -1.6500    0.0000 C   0  0  0  0  0  0  0  0  0  0  0  0
    0.0000   -2.4750    0.0000 C   0  0  0  0  0  0  0  0  0  0  0  0
    0.7145   -2.8875    0.0000 O   0  0  0  0  0  0  0  0  0  0  0  0
    1.4289   -2.4750    0.0000 C   0  0  0  0  0  0  0  0  0  0  0  0
    2.1434   -2.8875    0.0000 C   0  0  3  0  0  0  0  0  0  0  0  0
    2.1434   -3.7125    0.0000 O   0  0  0  0  0  0  0  0  0  0  0  0
    2.8579   -2.4750    0.0000 C   0  0  0  0  0  0  0  0  0  0  0  0
    3.5724   -2.8875    0.0000 N   0  0  0  0  0  0  0  0  0  0  0  0
    4.2868   -2.4750    0.0000 C   0  0  0  0  0  0  0  0  0  0  0  0
    5.0013   -2.8875    0.0000 C   0  0  0  0  0  0  0  0  0  0  0  0
    5.0013   -3.7125    0.0000 C   0  0  0  0  0  0  0  0  0  0  0  0
    4.2868   -4.1250    0.0000 C   0  0  0  0  0  0  0  0  0  0  0  0
    3.5724   -3.7125    0.0000 C   0  0  0  0  0  0  0  0  0  0  0  0
  1  2  1  0  0  0  0
  2  3  2  0  0  0  0
  2  4  1  0  0  0  0
  4  5  2  0  0  0  0
  4 10  1  0  0  0  0
  5  6  1  0  0  0  0
  6  7  1  0  0  0  0
  6  8  2  0  0  0  0
  8  9  1  0  0  0  0
  9 10  2  0  0  0  0
 10 11  1  0  0  0  0
 11 12  1  0  0  0  0
 12 13  1  0  0  0  0
 13 14  1  0  0  0  0
 13 15  1  0  0  0  0
 15 16  1  0  0  0  0
 16 17  1  0  0  0  0
 16 21  1  0  0  0  0
 17 18  1  0  0  0  0
 18 19  1  0  0  0  0
 19 20  1  0  0  0  0
 20 21  1  0  0  0  0
M  END
$$$$

 OpenBabel12191814062D

 28 30  0  0  0  0  0  0  0  0999 V2000
    0.0000   -6.6000    0.0000 C   0  0  0  0  0  0  0  0  0  0  0  0
   -0.7145   -6.1875    0.0000 C   0  0  0  0  0  0  0  0  0  0  0  0
   -1.4289   -6.6000    0.0000 O   0  0  0  0  0  0  0  0  0  0  0  0
   -0.7145   -5.3625    0.0000 C   0  0  0  0  0  0  0  0  0  0  0  0
   -1.4289   -4.9500    0.0000 C   0  0  0  0  0  0  0  0  0  0  0  0
   -1.4289   -4.1250    0.0000 C   0  0  0  0  0  0  0  0  0  0  0  0
   -2.1434   -3.7125    0.0000 C   0  0  0  0  0  0  0  0  0  0  0  0
   -0.7145   -3.7125    0.0000 C   0  0  0  0  0  0  0  0  0  0  0  0
    0.0000   -4.1250    0.0000 C   0  0  0  0  0  0  0  0  0  0  0  0
    0.0000   -4.9500    0.0000 C   0  0  0  0  0  0  0  0  0  0  0  0
    0.7145   -5.3625    0.0000 O   0  0  0  0  0  0  0  0  0  0  0  0
    1.4289   -4.9500    0.0000 C   0  0  0  0  0  0  0  0  0  0  0  0
    2.1434   -5.3625    0.0000 C   0  0  3  0  0  0  0  0  0  0  0  0
    2.1434   -6.1875    0.0000 O   0  0  0  0  0  0  0  0  0  0  0  0
    2.8579   -4.9500    0.0000 C   0  0  0  0  0  0  0  0  0  0  0  0
    3.5724   -5.3625    0.0000 N   0  0  0  0  0  0  0  0  0  0  0  0
    4.2868   -4.9500    0.0000 C   0  0  0  0  0  0  0  0  0  0  0  0
    5.0013   -5.3625    0.0000 C   0  0  0  0  0  0  0  0  0  0  0  0
    5.0013   -6.1875    0.0000 N   0  0  0  0  0  0  0  0  0  0  0  0
    4.2868   -6.6000    0.0000 C   0  0  0  0  0  0  0  0  0  0  0  0
    3.5724   -6.1875    0.0000 C   0  0  0  0  0  0  0  0  0  0  0  0
    5.7158   -6.6000    0.0000 C   0  0  0  0  0  0  0  0  0  0  0  0
    6.4302   -6.1875    0.0000 C   0  0  0  0  0  0  0  0  0  0  0  0
    7.1447   -6.6000    0.0000 C   0  0  0  0  0  0  0  0  0  0  0  0
    7.1447   -7.4250    0.0000 C   0  0  0  0  0  0  0  0  0  0  0  0
    6.4302   -7.8375    0.0000 C   0  0  0  0  0  0  0  0  0  0  0  0
    5.7158   -7.4250    0.0000 C   0  0  0  0  0  0  0  0  0  0  0  0
    5.0013   -7.8375    0.0000 C   0  0  0  0  0  0  0  0  0  0  0  0
  1  2  1  0  0  0  0
  2  3  2  0  0  0  0
  2  4  1  0  0  0  0
  4  5  2  0  0  0  0
  4 10  1  0  0  0  0
  5  6  1  0  0  0  0
  6  7  1  0  0  0  0
  6  8  2  0  0  0  0
  8  9  1  0  0  0  0
  9 10  2  0  0  0  0
 10 11  1  0  0  0  0
 11 12  1  0  0  0  0
 12 13  1  0  0  0  0
 13 14  1  0  0  0  0
 13 15  1  0  0  0  0
 15 16  1  0  0  0  0
 16 17  1  0  0  0  0
 16 21  1  0  0  0  0
 17 18  1  0  0  0  0
 18 19  1  0  0  0  0
 19 20  1  0  0  0  0
 19 22  1  0  0  0  0
 20 21  1  0  0  0  0
 22 23  2  0  0  0  0
 22 27  1  0  0  0  0
 23 24  1  0  0  0  0
 24 25  2  0  0  0  0
 25 26  1  0  0  0  0
 26 27  2  0  0  0  0
 27 28  1  0  0  0  0
M  END
$$$$

 OpenBabel12191814062D

 29 31  0  0  0  0  0  0  0  0999 V2000
    0.0000   -6.6000    0.0000 C   0  0  0  0  0  0  0  0  0  0  0  0
   -0.7145   -6.1875    0.0000 C   0  0  0  0  0  0  0  0  0  0  0  0
   -1.4289   -6.6000    0.0000 O   0  0  0  0  0  0  0  0  0  0  0  0
   -0.7145   -5.3625    0.0000 C   0  0  0  0  0  0  0  0  0  0  0  0
   -1.4289   -4.9500    0.0000 C   0  0  0  0  0  0  0  0  0  0  0  0
   -1.4289   -4.1250    0.0000 C   0  0  0  0  0  0  0  0  0  0  0  0
   -2.1434   -3.7125    0.0000 Cl  0  0  0  0  0  0  0  0  0  0  0  0
   -0.7145   -3.7125    0.0000 C   0  0  0  0  0  0  0  0  0  0  0  0
   -0.7145   -2.8875    0.0000 Cl  0  0  0  0  0  0  0  0  0  0  0  0
    0.0000   -4.1250    0.0000 C   0  0  0  0  0  0  0  0  0  0  0  0
    0.0000   -4.9500    0.0000 C   0  0  0  0  0  0  0  0  0  0  0  0
    0.7145   -5.3625    0.0000 O   0  0  0  0  0  0  0  0  0  0  0  0
    1.4289   -4.9500    0.0000 C   0  0  0  0  0  0  0  0  0  0  0  0
    2.1434   -5.3625    0.0000 C   0  0  3  0  0  0  0  0  0  0  0  0
    2.1434   -6.1875    0.0000 O   0  0  0  0  0  0  0  0  0  0  0  0
    2.8579   -4.9500    0.0000 C   0  0  0  0  0  0  0  0  0  0  0  0
    3.5724   -5.3625    0.0000 N   0  0  0  0  0  0  0  0  0  0  0  0
    4.2868   -4.9500    0.0000 C   0  0  0  0  0  0  0  0  0  0  0  0
    5.0013   -5.3625    0.0000 C   0  0  0  0  0  0  0  0  0  0  0  0
    5.0013   -6.1875    0.0000 N   0  0  0  0  0  0  0  0  0  0  0  0
    4.2868   -6.6000    0.0000 C   0  0  0  0  0  0  0  0  0  0  0  0
    3.5724   -6.1875    0.0000 C   0  0  0  0  0  0  0  0  0  0  0  0
    5.7158   -6.6000    0.0000 C   0  0  0  0  0  0  0  0  0  0  0  0
    6.4302   -6.1875    0.0000 C   0  0  0  0  0  0  0  0  0  0  0  0
    7.1447   -6.6000    0.0000 C   0  0  0  0  0  0  0  0  0  0  0  0
    7.1447   -7.4250    0.0000 C   0  0  0  0  0  0  0  0  0  0  0  0
    6.4302   -7.8375    0.0000 C   0  0  0  0  0  0  0  0  0  0  0  0
    5.7158   -7.4250    0.0000 C   0  0  0  0  0  0  0  0  0  0  0  0
    5.0013   -7.8375    0.0000 C   0  0  0  0  0  0  0  0  0  0  0  0
  1  2  1  0  0  0  0
  2  3  2  0  0  0  0
  2  4  1  0  0  0  0
  4  5  2  0  0  0  0
  4 11  1  0  0  0  0
  5  6  1  0  0  0  0
  6  7  1  0  0  0  0
  6  8  2  0  0  0  0
  8  9  1  0  0  0  0
  8 10  1  0  0  0  0
 10 11  2  0  0  0  0
 11 12  1  0  0  0  0
 12 13  1  0  0  0  0
 13 14  1  0  0  0  0
 14 15  1  0  0  0  0
 14 16  1  0  0  0  0
 16 17  1  0  0  0  0
 17 18  1  0  0  0  0
 17 22  1  0  0  0  0
 18 19  1  0  0  0  0
 19 20  1  0  0  0  0
 20 21  1  0  0  0  0
 20 23  1  0  0  0  0
 21 22  1  0  0  0  0
 23 24  2  0  0  0  0
 23 28  1  0  0  0  0
 24 25  1  0  0  0  0
 25 26  2  0  0  0  0
 26 27  1  0  0  0  0
 27 28  2  0  0  0  0
 28 29  1  0  0  0  0
M  END
$$$$

 OpenBabel12191814062D

 28 30  0  0  0  0  0  0  0  0999 V2000
   -1.4289   -6.6000    0.0000 C   0  0  0  0  0  0  0  0  0  0  0  0
   -0.7145   -6.1875    0.0000 C   0  0  0  0  0  0  0  0  0  0  0  0
    0.0000   -6.6000    0.0000 O   0  0  0  0  0  0  0  0  0  0  0  0
   -0.7145   -5.3625    0.0000 C   0  0  0  0  0  0  0  0  0  0  0  0
   -1.4289   -4.9500    0.0000 C   0  0  0  0  0  0  0  0  0  0  0  0
   -1.4289   -4.1250    0.0000 C   0  0  0  0  0  0  0  0  0  0  0  0
   -0.7145   -3.7125    0.0000 C   0  0  0  0  0  0  0  0  0  0  0  0
   -0.7145   -2.8875    0.0000 C   0  0  0  0  0  0  0  0  0  0  0  0
    0.0000   -4.1250    0.0000 C   0  0  0  0  0  0  0  0  0  0  0  0
    0.0000   -4.9500    0.0000 C   0  0  0  0  0  0  0  0  0  0  0  0
    0.7145   -5.3625    0.0000 O   0  0  0  0  0  0  0  0  0  0  0  0
    1.4289   -4.9500    0.0000 C   0  0  0  0  0  0  0  0  0  0  0  0
    2.1434   -5.3625    0.0000 C   0  0  3  0  0  0  0  0  0  0  0  0
    2.1434   -6.1875    0.0000 O   0  0  0  0  0  0  0  0  0  0  0  0
    2.8579   -4.9500    0.0000 C   0  0  0  0  0  0  0  0  0  0  0  0
    3.5724   -5.3625    0.0000 N   0  0  0  0  0  0  0  0  0  0  0  0
    4.2868   -4.9500    0.0000 C   0  0  0  0  0  0  0  0  0  0  0  0
    5.0013   -5.3625    0.0000 C   0  0  0  0  0  0  0  0  0  0  0  0
    5.0013   -6.1875    0.0000 N   0  0  0  0  0  0  0  0  0  0  0  0
    4.2868   -6.6000    0.0000 C   0  0  0  0  0  0  0  0  0  0  0  0
    3.5724   -6.1875    0.0000 C   0  0  0  0  0  0  0  0  0  0  0  0
    5.7158   -6.6000    0.0000 C   0  0  0  0  0  0  0  0  0  0  0  0
    6.4302   -6.1875    0.0000 C   0  0  0  0  0  0  0  0  0  0  0  0
    7.1447   -6.6000    0.0000 C   0  0  0  0  0  0  0  0  0  0  0  0
    7.1447   -7.4250    0.0000 C   0  0  0  0  0  0  0  0  0  0  0  0
    6.4302   -7.8375    0.0000 C   0  0  0  0  0  0  0  0  0  0  0  0
    5.7158   -7.4250    0.0000 C   0  0  0  0  0  0  0  0  0  0  0  0
    5.0013   -7.8375    0.0000 C   0  0  0  0  0  0  0  0  0  0  0  0
  1  2  1  0  0  0  0
  2  3  2  0  0  0  0
  2  4  1  0  0  0  0
  4  5  2  0  0  0  0
  4 10  1  0  0  0  0
  5  6  1  0  0  0  0
  6  7  2  0  0  0  0
  7  8  1  0  0  0  0
  7  9  1  0  0  0  0
  9 10  2  0  0  0  0
 10 11  1  0  0  0  0
 11 12  1  0  0  0  0
 12 13  1  0  0  0  0
 13 14  1  0  0  0  0
 13 15  1  0  0  0  0
 15 16  1  0  0  0  0
 16 17  1  0  0  0  0
 16 21  1  0  0  0  0
 17 18  1  0  0  0  0
 18 19  1  0  0  0  0
 19 20  1  0  0  0  0
 19 22  1  0  0  0  0
 20 21  1  0  0  0  0
 22 23  2  0  0  0  0
 22 27  1  0  0  0  0
 23 24  1  0  0  0  0
 24 25  2  0  0  0  0
 25 26  1  0  0  0  0
 26 27  2  0  0  0  0
 27 28  1  0  0  0  0
M  END
$$$$

 OpenBabel12191814062D

 35 39  0  0  0  0  0  0  0  0999 V2000
    0.7145    8.6625    0.0000 C   0  0  0  0  0  0  0  0  0  0  0  0
    1.4289    8.2500    0.0000 C   0  0  0  0  0  0  0  0  0  0  0  0
    2.1434    8.6625    0.0000 O   0  0  0  0  0  0  0  0  0  0  0  0
    1.4289    7.4250    0.0000 C   0  0  3  0  0  0  0  0  0  0  0  0
    2.1434    7.0125    0.0000 C   0  0  0  0  0  0  0  0  0  0  0  0
    2.1434    6.1875    0.0000 C   0  0  0  0  0  0  0  0  0  0  0  0
    1.4289    5.7750    0.0000 C   0  0  3  0  0  0  0  0  0  0  0  0
    1.4289    4.9500    0.0000 C   0  0  0  0  0  0  0  0  0  0  0  0
    2.1434    4.5375    0.0000 C   0  0  0  0  0  0  0  0  0  0  0  0
    2.8579    4.9500    0.0000 O   0  0  0  0  0  0  0  0  0  0  0  0
    2.1434    3.7125    0.0000 N   0  0  0  0  0  0  0  0  0  0  0  0
    2.8579    3.3000    0.0000 C   0  0  0  0  0  0  0  0  0  0  0  0
    2.8579    2.4750    0.0000 C   0  0  0  0  0  0  0  0  0  0  0  0
    2.1434    2.0625    0.0000 C   0  0  3  0  0  0  0  0  0  0  0  0
    1.4289    2.4750    0.0000 C   0  0  0  0  0  0  0  0  0  0  0  0
    1.4289    3.3000    0.0000 C   0  0  0  0  0  0  0  0  0  0  0  0
    2.1434    1.2375    0.0000 C   0  0  3  0  0  0  0  0  0  0  0  0
    2.8579    0.8250    0.0000 C   0  0  0  0  0  0  0  0  0  0  0  0
    3.5724    1.2375    0.0000 C   0  0  0  0  0  0  0  0  0  0  0  0
    4.2868    0.8250    0.0000 C   0  0  0  0  0  0  0  0  0  0  0  0
    4.2868   -0.0000    0.0000 C   0  0  0  0  0  0  0  0  0  0  0  0
    5.0013   -0.4125    0.0000 Br  0  0  0  0  0  0  0  0  0  0  0  0
    3.5724   -0.4125    0.0000 C   0  0  0  0  0  0  0  0  0  0  0  0
    2.8579    0.0000    0.0000 C   0  0  0  0  0  0  0  0  0  0  0  0
    2.1434   -0.4125    0.0000 C   0  0  0  0  0  0  0  0  0  0  0  0
    1.4289    0.0000    0.0000 C   0  0  0  0  0  0  0  0  0  0  0  0
    0.7145   -0.4125    0.0000 C   0  0  0  0  0  0  0  0  0  0  0  0
    0.0000    0.0000    0.0000 C   0  0  0  0  0  0  0  0  0  0  0  0
   -0.7145   -0.4125    0.0000 Cl  0  0  0  0  0  0  0  0  0  0  0  0
    0.0000    0.8250    0.0000 C   0  0  0  0  0  0  0  0  0  0  0  0
    0.7145    1.2375    0.0000 C   0  0  0  0  0  0  0  0  0  0  0  0
    0.7145    2.0625    0.0000 Br  0  0  0  0  0  0  0  0  0  0  0  0
    1.4289    0.8250    0.0000 C   0  0  0  0  0  0  0  0  0  0  0  0
    0.7145    6.1875    0.0000 C   0  0  0  0  0  0  0  0  0  0  0  0
    0.7145    7.0125    0.0000 C   0  0  0  0  0  0  0  0  0  0  0  0
  1  2  1  0  0  0  0
  2  3  2  0  0  0  0
  2  4  1  0  0  0  0
  4  5  1  0  0  0  0
  4 35  1  0  0  0  0
  5  6  1  0  0  0  0
  6  7  1  0  0  0  0
  7  8  1  0  0  0  0
  7 34  1  0  0  0  0
  8  9  1  0  0  0  0
  9 10  2  0  0  0  0
  9 11  1  0  0  0  0
 11 12  1  0  0  0  0
 11 16  1  0  0  0  0
 12 13  1  0  0  0  0
 13 14  1  0  0  0  0
 14 15  1  0  0  0  0
 14 17  1  0  0  0  0
 15 16  1  0  0  0  0
 17 18  1  0  0  0  0
 17 33  1  0  0  0  0
 18 19  2  0  0  0  0
 18 24  1  0  0  0  0
 19 20  1  0  0  0  0
 20 21  2  0  0  0  0
 21 22  1  0  0  0  0
 21 23  1  0  0  0  0
 23 24  2  0  0  0  0
 24 25  1  0  0  0  0
 25 26  1  0  0  0  0
 26 27  2  0  0  0  0
 26 33  1  0  0  0  0
 27 28  1  0  0  0  0
 28 29  1  0  0  0  0
 28 30  2  0  0  0  0
 30 31  1  0  0  0  0
 31 32  1  0  0  0  0
 31 33  2  0  0  0  0
 34 35  1  0  0  0  0
M  END
$$$$

 OpenBabel12191814062D

 27 29  0  0  0  0  0  0  0  0999 V2000
   -2.8579   -4.1250    0.0000 C   0  0  0  0  0  0  0  0  0  0  0  0
   -2.1434   -3.7125    0.0000 C   0  0  0  0  0  0  0  0  0  0  0  0
   -2.1434   -2.8875    0.0000 O   0  0  0  0  0  0  0  0  0  0  0  0
   -1.4289   -4.1250    0.0000 C   0  0  0  0  0  0  0  0  0  0  0  0
   -0.7145   -3.7125    0.0000 C   0  0  0  0  0  0  0  0  0  0  0  0
    0.0000   -4.1250    0.0000 C   0  0  0  0  0  0  0  0  0  0  0  0
    0.0000   -4.9500    0.0000 C   0  0  0  0  0  0  0  0  0  0  0  0
    0.7145   -5.3625    0.0000 O   0  0  0  0  0  0  0  0  0  0  0  0
    1.4289   -4.9500    0.0000 C   0  0  0  0  0  0  0  0  0  0  0  0
    2.1434   -5.3625    0.0000 C   0  0  3  0  0  0  0  0  0  0  0  0
    2.1434   -6.1875    0.0000 O   0  0  0  0  0  0  0  0  0  0  0  0
    2.8579   -4.9500    0.0000 C   0  0  0  0  0  0  0  0  0  0  0  0
    3.5724   -5.3625    0.0000 N   0  0  0  0  0  0  0  0  0  0  0  0
    4.2868   -4.9500    0.0000 C   0  0  0  0  0  0  0  0  0  0  0  0
    5.0013   -5.3625    0.0000 C   0  0  0  0  0  0  0  0  0  0  0  0
    5.0013   -6.1875    0.0000 N   0  0  0  0  0  0  0  0  0  0  0  0
    4.2868   -6.6000    0.0000 C   0  0  0  0  0  0  0  0  0  0  0  0
    3.5724   -6.1875    0.0000 C   0  0  0  0  0  0  0  0  0  0  0  0
    5.7158   -6.6000    0.0000 C   0  0  0  0  0  0  0  0  0  0  0  0
    6.4302   -6.1875    0.0000 C   0  0  0  0  0  0  0  0  0  0  0  0
    7.1447   -6.6000    0.0000 C   0  0  0  0  0  0  0  0  0  0  0  0
    7.1447   -7.4250    0.0000 C   0  0  0  0  0  0  0  0  0  0  0  0
    7.8592   -7.8375    0.0000 F   0  0  0  0  0  0  0  0  0  0  0  0
    6.4302   -7.8375    0.0000 C   0  0  0  0  0  0  0  0  0  0  0  0
    5.7158   -7.4250    0.0000 C   0  0  0  0  0  0  0  0  0  0  0  0
   -0.7145   -5.3625    0.0000 C   0  0  0  0  0  0  0  0  0  0  0  0
   -1.4289   -4.9500    0.0000 C   0  0  0  0  0  0  0  0  0  0  0  0
  1  2  1  0  0  0  0
  2  3  2  0  0  0  0
  2  4  1  0  0  0  0
  4  5  2  0  0  0  0
  4 27  1  0  0  0  0
  5  6  1  0  0  0  0
  6  7  2  0  0  0  0
  7  8  1  0  0  0  0
  7 26  1  0  0  0  0
  8  9  1  0  0  0  0
  9 10  1  0  0  0  0
 10 11  1  0  0  0  0
 10 12  1  0  0  0  0
 12 13  1  0  0  0  0
 13 14  1  0  0  0  0
 13 18  1  0  0  0  0
 14 15  1  0  0  0  0
 15 16  1  0  0  0  0
 16 17  1  0  0  0  0
 16 19  1  0  0  0  0
 17 18  1  0  0  0  0
 19 20  2  0  0  0  0
 19 25  1  0  0  0  0
 20 21  1  0  0  0  0
 21 22  2  0  0  0  0
 22 23  1  0  0  0  0
 22 24  1  0  0  0  0
 24 25  2  0  0  0  0
 26 27  2  0  0  0  0
M  END
$$$$

 OpenBabel12191814062D

 30 32  0  0  0  0  0  0  0  0999 V2000
   -7.8592   -0.4125    0.0000 C   0  0  0  0  0  0  0  0  0  0  0  0
   -7.1447   -0.0000    0.0000 C   0  0  0  0  0  0  0  0  0  0  0  0
   -7.1447    0.8250    0.0000 O   0  0  0  0  0  0  0  0  0  0  0  0
   -6.4302   -0.4125    0.0000 C   0  0  0  0  0  0  0  0  0  0  0  0
   -5.7158   -0.0000    0.0000 C   0  0  0  0  0  0  0  0  0  0  0  0
   -5.0013   -0.4125    0.0000 C   0  0  0  0  0  0  0  0  0  0  0  0
   -5.0013   -1.2375    0.0000 C   0  0  0  0  0  0  0  0  0  0  0  0
   -4.2868   -1.6500    0.0000 O   0  0  0  0  0  0  0  0  0  0  0  0
   -3.5724   -1.2375    0.0000 C   0  0  0  0  0  0  0  0  0  0  0  0
   -2.8579   -1.6500    0.0000 C   0  0  3  0  0  0  0  0  0  0  0  0
   -2.8579   -2.4750    0.0000 O   0  0  0  0  0  0  0  0  0  0  0  0
   -2.1434   -1.2375    0.0000 C   0  0  0  0  0  0  0  0  0  0  0  0
   -1.4289   -1.6500    0.0000 N   0  0  0  0  0  0  0  0  0  0  0  0
   -0.7145   -1.2375    0.0000 C   0  0  0  0  0  0  0  0  0  0  0  0
    0.0000   -1.6500    0.0000 C   0  0  0  0  0  0  0  0  0  0  0  0
    0.7145   -1.2375    0.0000 C   0  0  0  0  0  0  0  0  0  0  0  0
    1.4289   -1.6500    0.0000 C   0  0  0  0  0  0  0  0  0  0  0  0
    2.1434   -1.2375    0.0000 C   0  0  0  0  0  0  0  0  0  0  0  0
    2.8579   -1.6500    0.0000 C   0  0  0  0  0  0  0  0  0  0  0  0
    2.8579   -2.4750    0.0000 C   0  0  0  0  0  0  0  0  0  0  0  0
    2.1434   -2.8875    0.0000 C   0  0  0  0  0  0  0  0  0  0  0  0
    1.4289   -2.4750    0.0000 C   0  0  0  0  0  0  0  0  0  0  0  0
    0.7145   -0.4125    0.0000 C   0  0  0  0  0  0  0  0  0  0  0  0
    0.0000   -0.0000    0.0000 C   0  0  0  0  0  0  0  0  0  0  0  0
    0.0000    0.8250    0.0000 C   0  0  0  0  0  0  0  0  0  0  0  0
    0.7145    1.2375    0.0000 C   0  0  0  0  0  0  0  0  0  0  0  0
    1.4289    0.8250    0.0000 C   0  0  0  0  0  0  0  0  0  0  0  0
    1.4289   -0.0000    0.0000 C   0  0  0  0  0  0  0  0  0  0  0  0
   -5.7158   -1.6500    0.0000 C   0  0  0  0  0  0  0  0  0  0  0  0
   -6.4302   -1.2375    0.0000 C   0  0  0  0  0  0  0  0  0  0  0  0
  1  2  1  0  0  0  0
  2  3  2  0  0  0  0
  2  4  1  0  0  0  0
  4  5  2  0  0  0  0
  4 30  1  0  0  0  0
  5  6  1  0  0  0  0
  6  7  2  0  0  0  0
  7  8  1  0  0  0  0
  7 29  1  0  0  0  0
  8  9  1  0  0  0  0
  9 10  1  0  0  0  0
 10 11  1  0  0  0  0
 10 12  1  0  0  0  0
 12 13  1  0  0  0  0
 13 14  1  0  0  0  0
 14 15  1  0  0  0  0
 15 16  1  0  0  0  0
 16 17  1  0  0  0  0
 16 23  1  0  0  0  0
 17 18  2  0  0  0  0
 17 22  1  0  0  0  0
 18 19  1  0  0  0  0
 19 20  2  0  0  0  0
 20 21  1  0  0  0  0
 21 22  2  0  0  0  0
 23 24  2  0  0  0  0
 23 28  1  0  0  0  0
 24 25  1  0  0  0  0
 25 26  2  0  0  0  0
 26 27  1  0  0  0  0
 27 28  2  0  0  0  0
 29 30  2  0  0  0  0
M  END
$$$$

 OpenBabel12191814062D

 37 41  0  0  0  0  0  0  0  0999 V2000
    1.7447   -3.0280    0.0000 C   0  0  0  0  0  0  0  0  0  0  0  0
    2.5619   -3.1408    0.0000 C   0  0  0  0  0  0  0  0  0  0  0  0
    2.8728   -3.9050    0.0000 O   0  0  0  0  0  0  0  0  0  0  0  0
    3.0683   -2.4895    0.0000 C   0  0  3  0  0  0  0  0  0  0  0  0
    2.8390   -1.6970    0.0000 C   0  0  0  0  0  0  0  0  0  0  0  0
    3.5218   -1.2340    0.0000 C   0  0  0  0  0  0  0  0  0  0  0  0
    4.1731   -1.7404    0.0000 C   0  0  3  0  0  0  0  0  0  0  0  0
    4.9853   -1.5952    0.0000 C   0  0  3  0  0  0  0  0  0  0  0  0
    5.2655   -0.8192    0.0000 C   0  0  3  0  0  0  0  0  0  0  0  0
    6.0777   -0.6740    0.0000 C   0  0  0  0  0  0  0  0  0  0  0  0
    6.6095   -1.3047    0.0000 C   0  0  0  0  0  0  0  0  0  0  0  0
    7.4216   -1.1595    0.0000 C   0  0  0  0  0  0  0  0  0  0  0  0
    7.9534   -1.7902    0.0000 C   0  0  0  0  0  0  0  0  0  0  0  0
    8.7655   -1.6450    0.0000 O   0  0  0  0  0  0  0  0  0  0  0  0
    7.6731   -2.5662    0.0000 C   0  0  0  0  0  0  0  0  0  0  0  0
    6.8610   -2.7114    0.0000 C   0  0  0  0  0  0  0  0  0  0  0  0
    6.3292   -2.0807    0.0000 C   0  0  3  0  0  0  0  0  0  0  0  0
    6.0489   -2.8566    0.0000 C   0  0  0  0  0  0  0  0  0  0  0  0
    5.5171   -2.2259    0.0000 C   0  0  3  0  0  0  0  0  0  0  0  0
    5.2368   -3.0018    0.0000 C   0  0  0  0  0  0  0  0  0  0  0  0
    4.4247   -3.1470    0.0000 C   0  0  0  0  0  0  0  0  0  0  0  0
    3.8928   -2.5163    0.0000 C   0  0  3  0  0  0  0  0  0  0  0  0
    3.5330   -3.2587    0.0000 C   0  0  0  0  0  0  0  0  0  0  0  0
    4.7337   -0.1885    0.0000 S   0  0  0  0  0  0  0  0  0  0  0  0
    5.0140    0.5874    0.0000 C   0  0  0  0  0  0  0  0  0  0  0  0
    4.4822    1.2181    0.0000 C   0  0  0  0  0  0  0  0  0  0  0  0
    4.7625    1.9940    0.0000 C   0  0  0  0  0  0  0  0  0  0  0  0
    5.5746    2.1392    0.0000 C   0  0  0  0  0  0  0  0  0  0  0  0
    5.8549    2.9152    0.0000 N   0  0  0  0  0  0  0  0  0  0  0  0
    5.3231    3.5459    0.0000 C   0  0  0  0  0  0  0  0  0  0  0  0
    4.5110    3.4007    0.0000 O   0  0  0  0  0  0  0  0  0  0  0  0
    5.6034    4.3218    0.0000 N   0  0  0  0  0  0  0  0  0  0  0  0
    5.0716    4.9525    0.0000 C   0  0  0  0  0  0  0  0  0  0  0  0
    5.3519    5.7284    0.0000 C   0  0  0  0  0  0  0  0  0  0  0  0
    4.8201    6.3591    0.0000 Cl  0  0  0  0  0  0  0  0  0  0  0  0
    6.1064    1.5085    0.0000 C   0  0  0  0  0  0  0  0  0  0  0  0
    5.8261    0.7326    0.0000 C   0  0  0  0  0  0  0  0  0  0  0  0
  1  2  1  0  0  0  0
  2  3  2  0  0  0  0
  2  4  1  0  0  0  0
  4  5  1  0  0  0  0
  4 22  1  0  0  0  0
  5  6  1  0  0  0  0
  6  7  1  0  0  0  0
  7  8  1  0  0  0  0
  7 22  1  0  0  0  0
  8  9  1  0  0  0  0
  8 19  1  0  0  0  0
  9 10  1  0  0  0  0
  9 24  1  0  0  0  0
 10 11  1  0  0  0  0
 11 12  2  0  0  0  0
 11 17  1  0  0  0  0
 12 13  1  0  0  0  0
 13 14  2  0  0  0  0
 13 15  1  0  0  0  0
 15 16  1  0  0  0  0
 16 17  1  0  0  0  0
 17 18  1  0  0  0  0
 17 19  1  0  0  0  0
 19 20  1  0  0  0  0
 20 21  1  0  0  0  0
 21 22  1  0  0  0  0
 22 23  1  0  0  0  0
 24 25  1  0  0  0  0
 25 26  2  0  0  0  0
 25 37  1  0  0  0  0
 26 27  1  0  0  0  0
 27 28  2  0  0  0  0
 28 29  1  0  0  0  0
 28 36  1  0  0  0  0
 29 30  1  0  0  0  0
 30 31  2  0  0  0  0
 30 32  1  0  0  0  0
 32 33  1  0  0  0  0
 33 34  1  0  0  0  0
 34 35  1  0  0  0  0
 36 37  2  0  0  0  0
M  END
$$$$

 OpenBabel12191814062D

 23 26  0  0  0  0  0  0  0  0999 V2000
    1.7447   -3.0280    0.0000 C   0  0  0  0  0  0  0  0  0  0  0  0
    2.5619   -3.1408    0.0000 C   0  0  0  0  0  0  0  0  0  0  0  0
    2.8728   -3.9050    0.0000 O   0  0  0  0  0  0  0  0  0  0  0  0
    3.0683   -2.4895    0.0000 C   0  0  3  0  0  0  0  0  0  0  0  0
    2.8390   -1.6970    0.0000 C   0  0  0  0  0  0  0  0  0  0  0  0
    3.5218   -1.2340    0.0000 C   0  0  0  0  0  0  0  0  0  0  0  0
    4.1731   -1.7404    0.0000 C   0  0  3  0  0  0  0  0  0  0  0  0
    4.9853   -1.5952    0.0000 C   0  0  3  0  0  0  0  0  0  0  0  0
    5.2655   -0.8192    0.0000 C   0  0  0  0  0  0  0  0  0  0  0  0
    6.0777   -0.6740    0.0000 C   0  0  0  0  0  0  0  0  0  0  0  0
    6.6095   -1.3047    0.0000 C   0  0  0  0  0  0  0  0  0  0  0  0
    7.4216   -1.1595    0.0000 C   0  0  0  0  0  0  0  0  0  0  0  0
    7.9534   -1.7902    0.0000 C   0  0  0  0  0  0  0  0  0  0  0  0
    8.7655   -1.6450    0.0000 O   0  0  0  0  0  0  0  0  0  0  0  0
    7.6731   -2.5662    0.0000 C   0  0  0  0  0  0  0  0  0  0  0  0
    6.8610   -2.7114    0.0000 C   0  0  0  0  0  0  0  0  0  0  0  0
    6.3292   -2.0807    0.0000 C   0  0  3  0  0  0  0  0  0  0  0  0
    6.0489   -2.8566    0.0000 C   0  0  0  0  0  0  0  0  0  0  0  0
    5.5171   -2.2259    0.0000 C   0  0  3  0  0  0  0  0  0  0  0  0
    5.2368   -3.0018    0.0000 C   0  0  0  0  0  0  0  0  0  0  0  0
    4.4247   -3.1470    0.0000 C   0  0  0  0  0  0  0  0  0  0  0  0
    3.8928   -2.5163    0.0000 C   0  0  3  0  0  0  0  0  0  0  0  0
    3.5330   -3.2587    0.0000 C   0  0  0  0  0  0  0  0  0  0  0  0
  1  2  1  0  0  0  0
  2  3  2  0  0  0  0
  2  4  1  0  0  0  0
  4  5  1  0  0  0  0
  4 22  1  0  0  0  0
  5  6  1  0  0  0  0
  6  7  1  0  0  0  0
  7  8  1  0  0  0  0
  7 22  1  0  0  0  0
  8  9  1  0  0  0  0
  8 19  1  0  0  0  0
  9 10  1  0  0  0  0
 10 11  1  0  0  0  0
 11 12  2  0  0  0  0
 11 17  1  0  0  0  0
 12 13  1  0  0  0  0
 13 14  2  0  0  0  0
 13 15  1  0  0  0  0
 15 16  1  0  0  0  0
 16 17  1  0  0  0  0
 17 18  1  0  0  0  0
 17 19  1  0  0  0  0
 19 20  1  0  0  0  0
 20 21  1  0  0  0  0
 21 22  1  0  0  0  0
 22 23  1  0  0  0  0
M  END
$$$$

 OpenBabel12191814062D

 35 39  0  0  0  0  0  0  0  0999 V2000
    0.0000   -2.4750    0.0000 C   0  0  0  0  0  0  0  0  0  0  0  0
    0.7145   -2.8875    0.0000 C   0  0  0  0  0  0  0  0  0  0  0  0
    0.7145   -3.7125    0.0000 O   0  0  0  0  0  0  0  0  0  0  0  0
    1.4289   -2.4750    0.0000 C   0  0  0  0  0  0  0  0  0  0  0  0
    1.4289   -1.6500    0.0000 C   0  0  0  0  0  0  0  0  0  0  0  0
    2.1434   -1.2375    0.0000 C   0  0  0  0  0  0  0  0  0  0  0  0
    2.8579   -1.6500    0.0000 C   0  0  0  0  0  0  0  0  0  0  0  0
    3.5724   -1.2375    0.0000 S   0  0  0  0  0  0  0  0  0  0  0  0
    4.2868   -1.6500    0.0000 C   0  0  0  0  0  0  0  0  0  0  0  0
    5.0013   -1.2375    0.0000 C   0  0  0  0  0  0  0  0  0  0  0  0
    5.7158   -1.6500    0.0000 C   0  0  0  0  0  0  0  0  0  0  0  0
    5.7158   -2.4750    0.0000 C   0  0  0  0  0  0  0  0  0  0  0  0
    5.0013   -2.8875    0.0000 C   0  0  0  0  0  0  0  0  0  0  0  0
    4.2868   -2.4750    0.0000 C   0  0  0  0  0  0  0  0  0  0  0  0
    3.5724   -2.8875    0.0000 N   0  0  0  0  0  0  0  0  0  0  0  0
    3.5724   -3.7125    0.0000 C   0  0  0  0  0  0  0  0  0  0  0  0
    2.8579   -4.1250    0.0000 C   0  0  0  0  0  0  0  0  0  0  0  0
    2.8579   -4.9500    0.0000 C   0  0  0  0  0  0  0  0  0  0  0  0
    2.1434   -5.3625    0.0000 N   0  0  0  0  0  0  0  0  0  0  0  0
    2.1434   -6.1875    0.0000 C   0  0  0  0  0  0  0  0  0  0  0  0
    1.4289   -6.6000    0.0000 C   0  0  0  0  0  0  0  0  0  0  0  0
    0.7145   -6.1875    0.0000 C   0  0  0  0  0  0  0  0  0  0  0  0
    0.7145   -5.3625    0.0000 C   0  0  0  0  0  0  0  0  0  0  0  0
    1.4289   -4.9500    0.0000 C   0  0  0  0  0  0  0  0  0  0  0  0
    0.0000   -6.6000    0.0000 C   0  0  0  0  0  0  0  0  0  0  0  0
   -0.7145   -6.1875    0.0000 O   0  0  0  0  0  0  0  0  0  0  0  0
    0.0000   -7.4250    0.0000 C   0  0  0  0  0  0  0  0  0  0  0  0
    0.7145   -7.8375    0.0000 C   0  0  0  0  0  0  0  0  0  0  0  0
    0.7145   -8.6625    0.0000 C   0  0  0  0  0  0  0  0  0  0  0  0
    0.0000   -9.0750    0.0000 C   0  0  0  0  0  0  0  0  0  0  0  0
    0.0000   -9.9000    0.0000 F   0  0  0  0  0  0  0  0  0  0  0  0
   -0.7145   -8.6625    0.0000 C   0  0  0  0  0  0  0  0  0  0  0  0
   -0.7145   -7.8375    0.0000 C   0  0  0  0  0  0  0  0  0  0  0  0
    2.8579   -2.4750    0.0000 C   0  0  0  0  0  0  0  0  0  0  0  0
    2.1434   -2.8875    0.0000 C   0  0  0  0  0  0  0  0  0  0  0  0
  1  2  1  0  0  0  0
  2  3  2  0  0  0  0
  2  4  1  0  0  0  0
  4  5  2  0  0  0  0
  4 35  1  0  0  0  0
  5  6  1  0  0  0  0
  6  7  2  0  0  0  0
  7  8  1  0  0  0  0
  7 34  1  0  0  0  0
  8  9  1  0  0  0  0
  9 10  2  0  0  0  0
  9 14  1  0  0  0  0
 10 11  1  0  0  0  0
 11 12  2  0  0  0  0
 12 13  1  0  0  0  0
 13 14  2  0  0  0  0
 14 15  1  0  0  0  0
 15 16  1  0  0  0  0
 15 34  1  0  0  0  0
 16 17  1  0  0  0  0
 17 18  1  0  0  0  0
 18 19  1  0  0  0  0
 19 20  1  0  0  0  0
 19 24  1  0  0  0  0
 20 21  1  0  0  0  0
 21 22  1  0  0  0  0
 22 23  1  0  0  0  0
 22 25  1  0  0  0  0
 23 24  1  0  0  0  0
 25 26  2  0  0  0  0
 25 27  1  0  0  0  0
 27 28  2  0  0  0  0
 27 33  1  0  0  0  0
 28 29  1  0  0  0  0
 29 30  2  0  0  0  0
 30 31  1  0  0  0  0
 30 32  1  0  0  0  0
 32 33  2  0  0  0  0
 34 35  2  0  0  0  0
M  END
$$$$

 OpenBabel12191814062D

 29 32  0  0  0  0  0  0  0  0999 V2000
    0.0000   -2.4750    0.0000 C   0  0  0  0  0  0  0  0  0  0  0  0
    0.7145   -2.8875    0.0000 C   0  0  0  0  0  0  0  0  0  0  0  0
    0.7145   -3.7125    0.0000 O   0  0  0  0  0  0  0  0  0  0  0  0
    1.4289   -2.4750    0.0000 C   0  0  0  0  0  0  0  0  0  0  0  0
    1.4289   -1.6500    0.0000 C   0  0  0  0  0  0  0  0  0  0  0  0
    2.1434   -1.2375    0.0000 C   0  0  0  0  0  0  0  0  0  0  0  0
    2.8579   -1.6500    0.0000 C   0  0  0  0  0  0  0  0  0  0  0  0
    3.5724   -1.2375    0.0000 S   0  0  0  0  0  0  0  0  0  0  0  0
    4.2868   -1.6500    0.0000 C   0  0  0  0  0  0  0  0  0  0  0  0
    5.0013   -1.2375    0.0000 C   0  0  0  0  0  0  0  0  0  0  0  0
    5.7158   -1.6500    0.0000 C   0  0  0  0  0  0  0  0  0  0  0  0
    5.7158   -2.4750    0.0000 C   0  0  0  0  0  0  0  0  0  0  0  0
    5.0013   -2.8875    0.0000 C   0  0  0  0  0  0  0  0  0  0  0  0
    4.2868   -2.4750    0.0000 C   0  0  0  0  0  0  0  0  0  0  0  0
    3.5724   -2.8875    0.0000 N   0  0  0  0  0  0  0  0  0  0  0  0
    3.5724   -3.7125    0.0000 C   0  0  0  0  0  0  0  0  0  0  0  0
    4.2868   -4.1250    0.0000 C   0  0  0  0  0  0  0  0  0  0  0  0
    5.0013   -3.7125    0.0000 C   0  0  0  0  0  0  0  0  0  0  0  0
    5.7158   -4.1250    0.0000 N   0  0  0  0  0  0  0  0  0  0  0  0
    6.4302   -3.7125    0.0000 C   0  0  0  0  0  0  0  0  0  0  0  0
    7.1447   -4.1250    0.0000 C   0  0  0  0  0  0  0  0  0  0  0  0
    7.1447   -4.9500    0.0000 N   0  0  0  0  0  0  0  0  0  0  0  0
    7.8592   -5.3625    0.0000 C   0  0  0  0  0  0  0  0  0  0  0  0
    7.8592   -6.1875    0.0000 C   0  0  0  0  0  0  0  0  0  0  0  0
    8.5737   -6.6000    0.0000 O   0  0  0  0  0  0  0  0  0  0  0  0
    6.4302   -5.3625    0.0000 C   0  0  0  0  0  0  0  0  0  0  0  0
    5.7158   -4.9500    0.0000 C   0  0  0  0  0  0  0  0  0  0  0  0
    2.8579   -2.4750    0.0000 C   0  0  0  0  0  0  0  0  0  0  0  0
    2.1434   -2.8875    0.0000 C   0  0  0  0  0  0  0  0  0  0  0  0
  1  2  1  0  0  0  0
  2  3  2  0  0  0  0
  2  4  1  0  0  0  0
  4  5  2  0  0  0  0
  4 29  1  0  0  0  0
  5  6  1  0  0  0  0
  6  7  2  0  0  0  0
  7  8  1  0  0  0  0
  7 28  1  0  0  0  0
  8  9  1  0  0  0  0
  9 10  2  0  0  0  0
  9 14  1  0  0  0  0
 10 11  1  0  0  0  0
 11 12  2  0  0  0  0
 12 13  1  0  0  0  0
 13 14  2  0  0  0  0
 14 15  1  0  0  0  0
 15 16  1  0  0  0  0
 15 28  1  0  0  0  0
 16 17  1  0  0  0  0
 17 18  1  0  0  0  0
 18 19  1  0  0  0  0
 19 20  1  0  0  0  0
 19 27  1  0  0  0  0
 20 21  1  0  0  0  0
 21 22  1  0  0  0  0
 22 23  1  0  0  0  0
 22 26  1  0  0  0  0
 23 24  1  0  0  0  0
 24 25  1  0  0  0  0
 26 27  1  0  0  0  0
 28 29  2  0  0  0  0
M  END
$$$$

 OpenBabel12191814062D

 20 21  0  0  0  0  0  0  0  0999 V2000
   -2.8579   -2.4750    0.0000 C   0  0  0  0  0  0  0  0  0  0  0  0
   -2.1434   -2.8875    0.0000 C   0  0  0  0  0  0  0  0  0  0  0  0
   -2.1434   -3.7125    0.0000 O   0  0  0  0  0  0  0  0  0  0  0  0
   -1.4289   -2.4750    0.0000 C   0  0  0  0  0  0  0  0  0  0  0  0
   -1.4289   -1.6500    0.0000 C   0  0  0  0  0  0  0  0  0  0  0  0
   -0.7145   -1.2375    0.0000 C   0  0  0  0  0  0  0  0  0  0  0  0
    0.0000   -1.6500    0.0000 C   0  0  0  0  0  0  0  0  0  0  0  0
    0.0000   -2.4750    0.0000 C   0  0  0  0  0  0  0  0  0  0  0  0
    0.7145   -2.8875    0.0000 O   0  0  0  0  0  0  0  0  0  0  0  0
    1.4289   -2.4750    0.0000 C   0  0  0  0  0  0  0  0  0  0  0  0
    2.1434   -2.8875    0.0000 C   0  0  3  0  0  0  0  0  0  0  0  0
    2.1434   -3.7125    0.0000 O   0  0  0  0  0  0  0  0  0  0  0  0
    2.8579   -2.4750    0.0000 C   0  0  0  0  0  0  0  0  0  0  0  0
    3.5724   -2.8875    0.0000 N   0  0  0  0  0  0  0  0  0  0  0  0
    4.2868   -2.4750    0.0000 C   0  0  0  0  0  0  0  0  0  0  0  0
    5.0013   -2.8875    0.0000 C   0  0  0  0  0  0  0  0  0  0  0  0
    5.0013   -3.7125    0.0000 C   0  0  0  0  0  0  0  0  0  0  0  0
    4.2868   -4.1250    0.0000 C   0  0  0  0  0  0  0  0  0  0  0  0
    3.5724   -3.7125    0.0000 C   0  0  0  0  0  0  0  0  0  0  0  0
   -0.7145   -2.8875    0.0000 C   0  0  0  0  0  0  0  0  0  0  0  0
  1  2  1  0  0  0  0
  2  3  2  0  0  0  0
  2  4  1  0  0  0  0
  4  5  2  0  0  0  0
  4 20  1  0  0  0  0
  5  6  1  0  0  0  0
  6  7  2  0  0  0  0
  7  8  1  0  0  0  0
  8  9  1  0  0  0  0
  8 20  2  0  0  0  0
  9 10  1  0  0  0  0
 10 11  1  0  0  0  0
 11 12  1  0  0  0  0
 11 13  1  0  0  0  0
 13 14  1  0  0  0  0
 14 15  1  0  0  0  0
 14 19  1  0  0  0  0
 15 16  1  0  0  0  0
 16 17  1  0  0  0  0
 17 18  1  0  0  0  0
 18 19  1  0  0  0  0
M  END
$$$$

 OpenBabel12191814062D

 27 29  0  0  0  0  0  0  0  0999 V2000
   -2.8579   -4.9500    0.0000 C   0  0  0  0  0  0  0  0  0  0  0  0
   -2.1434   -5.3625    0.0000 C   0  0  0  0  0  0  0  0  0  0  0  0
   -2.1434   -6.1875    0.0000 O   0  0  0  0  0  0  0  0  0  0  0  0
   -1.4289   -4.9500    0.0000 C   0  0  0  0  0  0  0  0  0  0  0  0
   -1.4289   -4.1250    0.0000 C   0  0  0  0  0  0  0  0  0  0  0  0
   -0.7145   -3.7125    0.0000 C   0  0  0  0  0  0  0  0  0  0  0  0
    0.0000   -4.1250    0.0000 C   0  0  0  0  0  0  0  0  0  0  0  0
    0.0000   -4.9500    0.0000 C   0  0  0  0  0  0  0  0  0  0  0  0
    0.7145   -5.3625    0.0000 O   0  0  0  0  0  0  0  0  0  0  0  0
    1.4289   -4.9500    0.0000 C   0  0  0  0  0  0  0  0  0  0  0  0
    2.1434   -5.3625    0.0000 C   0  0  3  0  0  0  0  0  0  0  0  0
    2.1434   -6.1875    0.0000 O   0  0  0  0  0  0  0  0  0  0  0  0
    2.8579   -4.9500    0.0000 C   0  0  0  0  0  0  0  0  0  0  0  0
    3.5724   -5.3625    0.0000 N   0  0  0  0  0  0  0  0  0  0  0  0
    4.2868   -4.9500    0.0000 C   0  0  0  0  0  0  0  0  0  0  0  0
    5.0013   -5.3625    0.0000 C   0  0  0  0  0  0  0  0  0  0  0  0
    5.0013   -6.1875    0.0000 N   0  0  0  0  0  0  0  0  0  0  0  0
    4.2868   -6.6000    0.0000 C   0  0  0  0  0  0  0  0  0  0  0  0
    3.5724   -6.1875    0.0000 C   0  0  0  0  0  0  0  0  0  0  0  0
    5.7158   -6.6000    0.0000 C   0  0  0  0  0  0  0  0  0  0  0  0
    6.4302   -6.1875    0.0000 C   0  0  0  0  0  0  0  0  0  0  0  0
    7.1447   -6.6000    0.0000 C   0  0  0  0  0  0  0  0  0  0  0  0
    7.1447   -7.4250    0.0000 C   0  0  0  0  0  0  0  0  0  0  0  0
    7.8592   -7.8375    0.0000 F   0  0  0  0  0  0  0  0  0  0  0  0
    6.4302   -7.8375    0.0000 C   0  0  0  0  0  0  0  0  0  0  0  0
    5.7158   -7.4250    0.0000 C   0  0  0  0  0  0  0  0  0  0  0  0
   -0.7145   -5.3625    0.0000 C   0  0  0  0  0  0  0  0  0  0  0  0
  1  2  1  0  0  0  0
  2  3  2  0  0  0  0
  2  4  1  0  0  0  0
  4  5  2  0  0  0  0
  4 27  1  0  0  0  0
  5  6  1  0  0  0  0
  6  7  2  0  0  0  0
  7  8  1  0  0  0  0
  8  9  1  0  0  0  0
  8 27  2  0  0  0  0
  9 10  1  0  0  0  0
 10 11  1  0  0  0  0
 11 12  1  0  0  0  0
 11 13  1  0  0  0  0
 13 14  1  0  0  0  0
 14 15  1  0  0  0  0
 14 19  1  0  0  0  0
 15 16  1  0  0  0  0
 16 17  1  0  0  0  0
 17 18  1  0  0  0  0
 17 20  1  0  0  0  0
 18 19  1  0  0  0  0
 20 21  2  0  0  0  0
 20 26  1  0  0  0  0
 21 22  1  0  0  0  0
 22 23  2  0  0  0  0
 23 24  1  0  0  0  0
 23 25  1  0  0  0  0
 25 26  2  0  0  0  0
M  END
$$$$

 OpenBabel12191814062D

 28 30  0  0  0  0  0  0  0  0999 V2000
   -2.8579   -4.9500    0.0000 C   0  0  0  0  0  0  0  0  0  0  0  0
   -2.1434   -5.3625    0.0000 C   0  0  0  0  0  0  0  0  0  0  0  0
   -2.1434   -6.1875    0.0000 O   0  0  0  0  0  0  0  0  0  0  0  0
   -1.4289   -4.9500    0.0000 C   0  0  0  0  0  0  0  0  0  0  0  0
   -1.4289   -4.1250    0.0000 C   0  0  0  0  0  0  0  0  0  0  0  0
   -0.7145   -3.7125    0.0000 C   0  0  0  0  0  0  0  0  0  0  0  0
    0.0000   -4.1250    0.0000 C   0  0  0  0  0  0  0  0  0  0  0  0
    0.0000   -4.9500    0.0000 C   0  0  0  0  0  0  0  0  0  0  0  0
    0.7145   -5.3625    0.0000 O   0  0  0  0  0  0  0  0  0  0  0  0
    1.4289   -4.9500    0.0000 C   0  0  0  0  0  0  0  0  0  0  0  0
    2.1434   -5.3625    0.0000 C   0  0  3  0  0  0  0  0  0  0  0  0
    2.1434   -6.1875    0.0000 O   0  0  0  0  0  0  0  0  0  0  0  0
    2.8579   -4.9500    0.0000 C   0  0  0  0  0  0  0  0  0  0  0  0
    3.5724   -5.3625    0.0000 N   0  0  0  0  0  0  0  0  0  0  0  0
    4.2868   -4.9500    0.0000 C   0  0  0  0  0  0  0  0  0  0  0  0
    5.0013   -5.3625    0.0000 C   0  0  0  0  0  0  0  0  0  0  0  0
    5.0013   -6.1875    0.0000 N   0  0  0  0  0  0  0  0  0  0  0  0
    4.2868   -6.6000    0.0000 C   0  0  0  0  0  0  0  0  0  0  0  0
    3.5724   -6.1875    0.0000 C   0  0  0  0  0  0  0  0  0  0  0  0
    5.7158   -6.6000    0.0000 C   0  0  0  0  0  0  0  0  0  0  0  0
    6.4302   -6.1875    0.0000 C   0  0  0  0  0  0  0  0  0  0  0  0
    7.1447   -6.6000    0.0000 C   0  0  0  0  0  0  0  0  0  0  0  0
    7.1447   -7.4250    0.0000 C   0  0  0  0  0  0  0  0  0  0  0  0
    6.4302   -7.8375    0.0000 C   0  0  0  0  0  0  0  0  0  0  0  0
    6.4302   -8.6625    0.0000 C   0  0  0  0  0  0  0  0  0  0  0  0
    5.7158   -7.4250    0.0000 C   0  0  0  0  0  0  0  0  0  0  0  0
    5.0013   -7.8375    0.0000 C   0  0  0  0  0  0  0  0  0  0  0  0
   -0.7145   -5.3625    0.0000 C   0  0  0  0  0  0  0  0  0  0  0  0
  1  2  1  0  0  0  0
  2  3  2  0  0  0  0
  2  4  1  0  0  0  0
  4  5  2  0  0  0  0
  4 28  1  0  0  0  0
  5  6  1  0  0  0  0
  6  7  2  0  0  0  0
  7  8  1  0  0  0  0
  8  9  1  0  0  0  0
  8 28  2  0  0  0  0
  9 10  1  0  0  0  0
 10 11  1  0  0  0  0
 11 12  1  0  0  0  0
 11 13  1  0  0  0  0
 13 14  1  0  0  0  0
 14 15  1  0  0  0  0
 14 19  1  0  0  0  0
 15 16  1  0  0  0  0
 16 17  1  0  0  0  0
 17 18  1  0  0  0  0
 17 20  1  0  0  0  0
 18 19  1  0  0  0  0
 20 21  2  0  0  0  0
 20 26  1  0  0  0  0
 21 22  1  0  0  0  0
 22 23  2  0  0  0  0
 23 24  1  0  0  0  0
 24 25  1  0  0  0  0
 24 26  2  0  0  0  0
 26 27  1  0  0  0  0
M  END
$$$$

 OpenBabel12191814062D

 27 29  0  0  0  0  0  0  0  0999 V2000
   -2.8579   -4.9500    0.0000 C   0  0  0  0  0  0  0  0  0  0  0  0
   -2.1434   -5.3625    0.0000 C   0  0  0  0  0  0  0  0  0  0  0  0
   -2.1434   -6.1875    0.0000 O   0  0  0  0  0  0  0  0  0  0  0  0
   -1.4289   -4.9500    0.0000 C   0  0  0  0  0  0  0  0  0  0  0  0
   -1.4289   -4.1250    0.0000 C   0  0  0  0  0  0  0  0  0  0  0  0
   -0.7145   -3.7125    0.0000 C   0  0  0  0  0  0  0  0  0  0  0  0
    0.0000   -4.1250    0.0000 C   0  0  0  0  0  0  0  0  0  0  0  0
    0.0000   -4.9500    0.0000 C   0  0  0  0  0  0  0  0  0  0  0  0
    0.7145   -5.3625    0.0000 O   0  0  0  0  0  0  0  0  0  0  0  0
    1.4289   -4.9500    0.0000 C   0  0  0  0  0  0  0  0  0  0  0  0
    2.1434   -5.3625    0.0000 C   0  0  3  0  0  0  0  0  0  0  0  0
    2.1434   -6.1875    0.0000 O   0  0  0  0  0  0  0  0  0  0  0  0
    2.8579   -4.9500    0.0000 C   0  0  0  0  0  0  0  0  0  0  0  0
    3.5724   -5.3625    0.0000 N   0  0  0  0  0  0  0  0  0  0  0  0
    4.2868   -4.9500    0.0000 C   0  0  0  0  0  0  0  0  0  0  0  0
    5.0013   -5.3625    0.0000 C   0  0  0  0  0  0  0  0  0  0  0  0
    5.0013   -6.1875    0.0000 N   0  0  0  0  0  0  0  0  0  0  0  0
    4.2868   -6.6000    0.0000 C   0  0  0  0  0  0  0  0  0  0  0  0
    3.5724   -6.1875    0.0000 C   0  0  0  0  0  0  0  0  0  0  0  0
    5.7158   -6.6000    0.0000 C   0  0  0  0  0  0  0  0  0  0  0  0
    6.4302   -6.1875    0.0000 C   0  0  0  0  0  0  0  0  0  0  0  0
    7.1447   -6.6000    0.0000 C   0  0  0  0  0  0  0  0  0  0  0  0
    7.1447   -7.4250    0.0000 C   0  0  0  0  0  0  0  0  0  0  0  0
    6.4302   -7.8375    0.0000 C   0  0  0  0  0  0  0  0  0  0  0  0
    5.7158   -7.4250    0.0000 C   0  0  0  0  0  0  0  0  0  0  0  0
    5.0013   -7.8375    0.0000 C   0  0  0  0  0  0  0  0  0  0  0  0
   -0.7145   -5.3625    0.0000 C   0  0  0  0  0  0  0  0  0  0  0  0
  1  2  1  0  0  0  0
  2  3  2  0  0  0  0
  2  4  1  0  0  0  0
  4  5  2  0  0  0  0
  4 27  1  0  0  0  0
  5  6  1  0  0  0  0
  6  7  2  0  0  0  0
  7  8  1  0  0  0  0
  8  9  1  0  0  0  0
  8 27  2  0  0  0  0
  9 10  1  0  0  0  0
 10 11  1  0  0  0  0
 11 12  1  0  0  0  0
 11 13  1  0  0  0  0
 13 14  1  0  0  0  0
 14 15  1  0  0  0  0
 14 19  1  0  0  0  0
 15 16  1  0  0  0  0
 16 17  1  0  0  0  0
 17 18  1  0  0  0  0
 17 20  1  0  0  0  0
 18 19  1  0  0  0  0
 20 21  2  0  0  0  0
 20 25  1  0  0  0  0
 21 22  1  0  0  0  0
 22 23  2  0  0  0  0
 23 24  1  0  0  0  0
 24 25  2  0  0  0  0
 25 26  1  0  0  0  0
M  END
$$$$

 OpenBabel12191814062D

 27 29  0  0  0  0  0  0  0  0999 V2000
   -5.7158   -5.7750    0.0000 C   0  0  0  0  0  0  0  0  0  0  0  0
   -5.0013   -5.3625    0.0000 C   0  0  0  0  0  0  0  0  0  0  0  0
   -4.2868   -5.7750    0.0000 O   0  0  0  0  0  0  0  0  0  0  0  0
   -5.0013   -4.5375    0.0000 C   0  0  0  0  0  0  0  0  0  0  0  0
   -5.7158   -4.1250    0.0000 C   0  0  0  0  0  0  0  0  0  0  0  0
   -5.7158   -3.3000    0.0000 C   0  0  0  0  0  0  0  0  0  0  0  0
   -5.0013   -2.8875    0.0000 C   0  0  0  0  0  0  0  0  0  0  0  0
   -4.2868   -3.3000    0.0000 C   0  0  0  0  0  0  0  0  0  0  0  0
   -4.2868   -4.1250    0.0000 C   0  0  0  0  0  0  0  0  0  0  0  0
   -3.5724   -4.5375    0.0000 O   0  0  0  0  0  0  0  0  0  0  0  0
   -2.8579   -4.1250    0.0000 C   0  0  0  0  0  0  0  0  0  0  0  0
   -2.1434   -4.5375    0.0000 C   0  0  3  0  0  0  0  0  0  0  0  0
   -2.1434   -5.3625    0.0000 O   0  0  0  0  0  0  0  0  0  0  0  0
   -1.4289   -4.1250    0.0000 C   0  0  0  0  0  0  0  0  0  0  0  0
   -0.7145   -4.5375    0.0000 N   0  0  0  0  0  0  0  0  0  0  0  0
    0.0000   -4.1250    0.0000 C   0  0  0  0  0  0  0  0  0  0  0  0
    0.7145   -4.5375    0.0000 C   0  0  0  0  0  0  0  0  0  0  0  0
    0.7145   -5.3625    0.0000 C   0  0  3  0  0  0  0  0  0  0  0  0
    1.4289   -5.7750    0.0000 C   0  0  0  0  0  0  0  0  0  0  0  0
    2.1434   -5.3625    0.0000 C   0  0  0  0  0  0  0  0  0  0  0  0
    2.1434   -4.5375    0.0000 C   0  0  0  0  0  0  0  0  0  0  0  0
    2.8579   -4.1250    0.0000 C   0  0  0  0  0  0  0  0  0  0  0  0
    3.5724   -4.5375    0.0000 C   0  0  0  0  0  0  0  0  0  0  0  0
    3.5724   -5.3625    0.0000 C   0  0  0  0  0  0  0  0  0  0  0  0
    2.8579   -5.7750    0.0000 C   0  0  0  0  0  0  0  0  0  0  0  0
    0.0000   -5.7750    0.0000 C   0  0  0  0  0  0  0  0  0  0  0  0
   -0.7145   -5.3625    0.0000 C   0  0  0  0  0  0  0  0  0  0  0  0
  1  2  1  0  0  0  0
  2  3  2  0  0  0  0
  2  4  1  0  0  0  0
  4  5  2  0  0  0  0
  4  9  1  0  0  0  0
  5  6  1  0  0  0  0
  6  7  2  0  0  0  0
  7  8  1  0  0  0  0
  8  9  2  0  0  0  0
  9 10  1  0  0  0  0
 10 11  1  0  0  0  0
 11 12  1  0  0  0  0
 12 13  1  0  0  0  0
 12 14  1  0  0  0  0
 14 15  1  0  0  0  0
 15 16  1  0  0  0  0
 15 27  1  0  0  0  0
 16 17  1  0  0  0  0
 17 18  1  0  0  0  0
 18 19  1  0  0  0  0
 18 26  1  0  0  0  0
 19 20  1  0  0  0  0
 20 21  2  0  0  0  0
 20 25  1  0  0  0  0
 21 22  1  0  0  0  0
 22 23  2  0  0  0  0
 23 24  1  0  0  0  0
 24 25  2  0  0  0  0
 26 27  1  0  0  0  0
M  END
$$$$

 OpenBabel12191814062D

 27 29  0  0  0  0  0  0  0  0999 V2000
   -1.6471   -5.7020    0.0000 C   0  0  0  0  0  0  0  0  0  0  0  0
   -0.9327   -5.2895    0.0000 C   0  0  0  0  0  0  0  0  0  0  0  0
   -0.2182   -5.7020    0.0000 O   0  0  0  0  0  0  0  0  0  0  0  0
   -0.9327   -4.4645    0.0000 C   0  0  0  0  0  0  0  0  0  0  0  0
   -1.6471   -4.0520    0.0000 C   0  0  0  0  0  0  0  0  0  0  0  0
   -1.6471   -3.2270    0.0000 C   0  0  0  0  0  0  0  0  0  0  0  0
   -0.9327   -2.8145    0.0000 C   0  0  0  0  0  0  0  0  0  0  0  0
   -0.2182   -3.2270    0.0000 C   0  0  0  0  0  0  0  0  0  0  0  0
   -0.2182   -4.0520    0.0000 C   0  0  0  0  0  0  0  0  0  0  0  0
    0.4963   -4.4645    0.0000 O   0  0  0  0  0  0  0  0  0  0  0  0
    1.2107   -4.0520    0.0000 C   0  0  0  0  0  0  0  0  0  0  0  0
    1.9252   -4.4645    0.0000 C   0  0  3  0  0  0  0  0  0  0  0  0
    1.9252   -5.2895    0.0000 O   0  0  0  0  0  0  0  0  0  0  0  0
    2.6397   -4.0520    0.0000 C   0  0  0  0  0  0  0  0  0  0  0  0
    2.6397   -3.2270    0.0000 N   0  0  0  0  0  0  0  0  0  0  0  0
    1.9252   -2.8145    0.0000 C   0  0  0  0  0  0  0  0  0  0  0  0
    1.9252   -1.9895    0.0000 C   0  0  0  0  0  0  0  0  0  0  0  0
    2.6397   -1.5770    0.0000 C   0  0  3  0  0  0  0  0  0  0  0  0
    2.1094   -0.9450    0.0000 O   0  0  0  0  0  0  0  0  0  0  0  0
    3.3542   -1.9895    0.0000 C   0  0  0  0  0  0  0  0  0  0  0  0
    3.3542   -2.8145    0.0000 C   0  0  0  0  0  0  0  0  0  0  0  0
    3.1700   -0.9450    0.0000 C   0  0  0  0  0  0  0  0  0  0  0  0
    2.8878   -0.1697    0.0000 C   0  0  0  0  0  0  0  0  0  0  0  0
    3.4181    0.4623    0.0000 C   0  0  0  0  0  0  0  0  0  0  0  0
    4.2306    0.3190    0.0000 C   0  0  0  0  0  0  0  0  0  0  0  0
    4.5127   -0.4563    0.0000 C   0  0  0  0  0  0  0  0  0  0  0  0
    3.9824   -1.0882    0.0000 C   0  0  0  0  0  0  0  0  0  0  0  0
  1  2  1  0  0  0  0
  2  3  2  0  0  0  0
  2  4  1  0  0  0  0
  4  5  2  0  0  0  0
  4  9  1  0  0  0  0
  5  6  1  0  0  0  0
  6  7  2  0  0  0  0
  7  8  1  0  0  0  0
  8  9  2  0  0  0  0
  9 10  1  0  0  0  0
 10 11  1  0  0  0  0
 11 12  1  0  0  0  0
 12 13  1  0  0  0  0
 12 14  1  0  0  0  0
 14 15  1  0  0  0  0
 15 16  1  0  0  0  0
 15 21  1  0  0  0  0
 16 17  1  0  0  0  0
 17 18  1  0  0  0  0
 18 19  1  0  0  0  0
 18 20  1  0  0  0  0
 18 22  1  0  0  0  0
 20 21  1  0  0  0  0
 22 23  2  0  0  0  0
 22 27  1  0  0  0  0
 23 24  1  0  0  0  0
 24 25  2  0  0  0  0
 25 26  1  0  0  0  0
 26 27  2  0  0  0  0
M  END
$$$$

 OpenBabel12191814062D

 27 29  0  0  0  0  0  0  0  0999 V2000
   -1.4289   -6.6000    0.0000 C   0  0  0  0  0  0  0  0  0  0  0  0
   -0.7145   -6.1875    0.0000 C   0  0  0  0  0  0  0  0  0  0  0  0
    0.0000   -6.6000    0.0000 O   0  0  0  0  0  0  0  0  0  0  0  0
   -0.7145   -5.3625    0.0000 C   0  0  0  0  0  0  0  0  0  0  0  0
   -1.4289   -4.9500    0.0000 C   0  0  0  0  0  0  0  0  0  0  0  0
   -1.4289   -4.1250    0.0000 C   0  0  0  0  0  0  0  0  0  0  0  0
   -0.7145   -3.7125    0.0000 C   0  0  0  0  0  0  0  0  0  0  0  0
    0.0000   -4.1250    0.0000 C   0  0  0  0  0  0  0  0  0  0  0  0
    0.0000   -4.9500    0.0000 C   0  0  0  0  0  0  0  0  0  0  0  0
    0.7145   -5.3625    0.0000 O   0  0  0  0  0  0  0  0  0  0  0  0
    1.4289   -4.9500    0.0000 C   0  0  0  0  0  0  0  0  0  0  0  0
    2.1434   -5.3625    0.0000 C   0  0  3  0  0  0  0  0  0  0  0  0
    2.1434   -6.1875    0.0000 O   0  0  0  0  0  0  0  0  0  0  0  0
    2.8579   -4.9500    0.0000 C   0  0  0  0  0  0  0  0  0  0  0  0
    3.5724   -5.3625    0.0000 N   0  0  0  0  0  0  0  0  0  0  0  0
    4.2868   -4.9500    0.0000 C   0  0  0  0  0  0  0  0  0  0  0  0
    5.0013   -5.3625    0.0000 C   0  0  0  0  0  0  0  0  0  0  0  0
    5.0013   -6.1875    0.0000 N   0  0  0  0  0  0  0  0  0  0  0  0
    4.2868   -6.6000    0.0000 C   0  0  0  0  0  0  0  0  0  0  0  0
    3.5724   -6.1875    0.0000 C   0  0  0  0  0  0  0  0  0  0  0  0
    5.7158   -6.6000    0.0000 C   0  0  0  0  0  0  0  0  0  0  0  0
    6.4302   -6.1875    0.0000 C   0  0  0  0  0  0  0  0  0  0  0  0
    7.1447   -6.6000    0.0000 C   0  0  0  0  0  0  0  0  0  0  0  0
    7.1447   -7.4250    0.0000 C   0  0  0  0  0  0  0  0  0  0  0  0
    7.8592   -7.8375    0.0000 F   0  0  0  0  0  0  0  0  0  0  0  0
    6.4302   -7.8375    0.0000 C   0  0  0  0  0  0  0  0  0  0  0  0
    5.7158   -7.4250    0.0000 C   0  0  0  0  0  0  0  0  0  0  0  0
  1  2  1  0  0  0  0
  2  3  2  0  0  0  0
  2  4  1  0  0  0  0
  4  5  2  0  0  0  0
  4  9  1  0  0  0  0
  5  6  1  0  0  0  0
  6  7  2  0  0  0  0
  7  8  1  0  0  0  0
  8  9  2  0  0  0  0
  9 10  1  0  0  0  0
 10 11  1  0  0  0  0
 11 12  1  0  0  0  0
 12 13  1  0  0  0  0
 12 14  1  0  0  0  0
 14 15  1  0  0  0  0
 15 16  1  0  0  0  0
 15 20  1  0  0  0  0
 16 17  1  0  0  0  0
 17 18  1  0  0  0  0
 18 19  1  0  0  0  0
 18 21  1  0  0  0  0
 19 20  1  0  0  0  0
 21 22  2  0  0  0  0
 21 27  1  0  0  0  0
 22 23  1  0  0  0  0
 23 24  2  0  0  0  0
 24 25  1  0  0  0  0
 24 26  1  0  0  0  0
 26 27  2  0  0  0  0
M  END
$$$$

 OpenBabel12191814062D

 28 30  0  0  0  0  0  0  0  0999 V2000
   -1.4289   -6.6000    0.0000 C   0  0  0  0  0  0  0  0  0  0  0  0
   -0.7145   -6.1875    0.0000 C   0  0  0  0  0  0  0  0  0  0  0  0
    0.0000   -6.6000    0.0000 O   0  0  0  0  0  0  0  0  0  0  0  0
   -0.7145   -5.3625    0.0000 C   0  0  0  0  0  0  0  0  0  0  0  0
   -1.4289   -4.9500    0.0000 C   0  0  0  0  0  0  0  0  0  0  0  0
   -1.4289   -4.1250    0.0000 C   0  0  0  0  0  0  0  0  0  0  0  0
   -0.7145   -3.7125    0.0000 C   0  0  0  0  0  0  0  0  0  0  0  0
    0.0000   -4.1250    0.0000 C   0  0  0  0  0  0  0  0  0  0  0  0
    0.0000   -4.9500    0.0000 C   0  0  0  0  0  0  0  0  0  0  0  0
    0.7145   -5.3625    0.0000 O   0  0  0  0  0  0  0  0  0  0  0  0
    1.4289   -4.9500    0.0000 C   0  0  0  0  0  0  0  0  0  0  0  0
    2.1434   -5.3625    0.0000 C   0  0  3  0  0  0  0  0  0  0  0  0
    2.1434   -6.1875    0.0000 O   0  0  0  0  0  0  0  0  0  0  0  0
    2.8579   -4.9500    0.0000 C   0  0  0  0  0  0  0  0  0  0  0  0
    3.5724   -5.3625    0.0000 N   0  0  0  0  0  0  0  0  0  0  0  0
    4.2868   -4.9500    0.0000 C   0  0  0  0  0  0  0  0  0  0  0  0
    5.0013   -5.3625    0.0000 C   0  0  0  0  0  0  0  0  0  0  0  0
    5.0013   -6.1875    0.0000 N   0  0  0  0  0  0  0  0  0  0  0  0
    4.2868   -6.6000    0.0000 C   0  0  0  0  0  0  0  0  0  0  0  0
    3.5724   -6.1875    0.0000 C   0  0  0  0  0  0  0  0  0  0  0  0
    5.7158   -6.6000    0.0000 C   0  0  0  0  0  0  0  0  0  0  0  0
    6.4302   -6.1875    0.0000 C   0  0  0  0  0  0  0  0  0  0  0  0
    7.1447   -6.6000    0.0000 C   0  0  0  0  0  0  0  0  0  0  0  0
    7.1447   -7.4250    0.0000 C   0  0  0  0  0  0  0  0  0  0  0  0
    6.4302   -7.8375    0.0000 C   0  0  0  0  0  0  0  0  0  0  0  0
    6.4302   -8.6625    0.0000 C   0  0  0  0  0  0  0  0  0  0  0  0
    5.7158   -7.4250    0.0000 C   0  0  0  0  0  0  0  0  0  0  0  0
    5.0013   -7.8375    0.0000 C   0  0  0  0  0  0  0  0  0  0  0  0
  1  2  1  0  0  0  0
  2  3  2  0  0  0  0
  2  4  1  0  0  0  0
  4  5  2  0  0  0  0
  4  9  1  0  0  0  0
  5  6  1  0  0  0  0
  6  7  2  0  0  0  0
  7  8  1  0  0  0  0
  8  9  2  0  0  0  0
  9 10  1  0  0  0  0
 10 11  1  0  0  0  0
 11 12  1  0  0  0  0
 12 13  1  0  0  0  0
 12 14  1  0  0  0  0
 14 15  1  0  0  0  0
 15 16  1  0  0  0  0
 15 20  1  0  0  0  0
 16 17  1  0  0  0  0
 17 18  1  0  0  0  0
 18 19  1  0  0  0  0
 18 21  1  0  0  0  0
 19 20  1  0  0  0  0
 21 22  2  0  0  0  0
 21 27  1  0  0  0  0
 22 23  1  0  0  0  0
 23 24  2  0  0  0  0
 24 25  1  0  0  0  0
 25 26  1  0  0  0  0
 25 27  2  0  0  0  0
 27 28  1  0  0  0  0
M  END
$$$$

 OpenBabel12191814062D

 27 29  0  0  0  0  0  0  0  0999 V2000
   -1.4289   -6.6000    0.0000 C   0  0  0  0  0  0  0  0  0  0  0  0
   -0.7145   -6.1875    0.0000 C   0  0  0  0  0  0  0  0  0  0  0  0
    0.0000   -6.6000    0.0000 O   0  0  0  0  0  0  0  0  0  0  0  0
   -0.7145   -5.3625    0.0000 C   0  0  0  0  0  0  0  0  0  0  0  0
   -1.4289   -4.9500    0.0000 C   0  0  0  0  0  0  0  0  0  0  0  0
   -1.4289   -4.1250    0.0000 C   0  0  0  0  0  0  0  0  0  0  0  0
   -0.7145   -3.7125    0.0000 C   0  0  0  0  0  0  0  0  0  0  0  0
    0.0000   -4.1250    0.0000 C   0  0  0  0  0  0  0  0  0  0  0  0
    0.0000   -4.9500    0.0000 C   0  0  0  0  0  0  0  0  0  0  0  0
    0.7145   -5.3625    0.0000 O   0  0  0  0  0  0  0  0  0  0  0  0
    1.4289   -4.9500    0.0000 C   0  0  0  0  0  0  0  0  0  0  0  0
    2.1434   -5.3625    0.0000 C   0  0  3  0  0  0  0  0  0  0  0  0
    2.1434   -6.1875    0.0000 O   0  0  0  0  0  0  0  0  0  0  0  0
    2.8579   -4.9500    0.0000 C   0  0  0  0  0  0  0  0  0  0  0  0
    3.5724   -5.3625    0.0000 N   0  0  0  0  0  0  0  0  0  0  0  0
    4.2868   -4.9500    0.0000 C   0  0  0  0  0  0  0  0  0  0  0  0
    5.0013   -5.3625    0.0000 C   0  0  0  0  0  0  0  0  0  0  0  0
    5.0013   -6.1875    0.0000 N   0  0  0  0  0  0  0  0  0  0  0  0
    4.2868   -6.6000    0.0000 C   0  0  0  0  0  0  0  0  0  0  0  0
    3.5724   -6.1875    0.0000 C   0  0  0  0  0  0  0  0  0  0  0  0
    5.7158   -6.6000    0.0000 C   0  0  0  0  0  0  0  0  0  0  0  0
    6.4302   -6.1875    0.0000 C   0  0  0  0  0  0  0  0  0  0  0  0
    7.1447   -6.6000    0.0000 C   0  0  0  0  0  0  0  0  0  0  0  0
    7.1447   -7.4250    0.0000 C   0  0  0  0  0  0  0  0  0  0  0  0
    6.4302   -7.8375    0.0000 C   0  0  0  0  0  0  0  0  0  0  0  0
    5.7158   -7.4250    0.0000 C   0  0  0  0  0  0  0  0  0  0  0  0
    5.0013   -7.8375    0.0000 C   0  0  0  0  0  0  0  0  0  0  0  0
  1  2  1  0  0  0  0
  2  3  2  0  0  0  0
  2  4  1  0  0  0  0
  4  5  2  0  0  0  0
  4  9  1  0  0  0  0
  5  6  1  0  0  0  0
  6  7  2  0  0  0  0
  7  8  1  0  0  0  0
  8  9  2  0  0  0  0
  9 10  1  0  0  0  0
 10 11  1  0  0  0  0
 11 12  1  0  0  0  0
 12 13  1  0  0  0  0
 12 14  1  0  0  0  0
 14 15  1  0  0  0  0
 15 16  1  0  0  0  0
 15 20  1  0  0  0  0
 16 17  1  0  0  0  0
 17 18  1  0  0  0  0
 18 19  1  0  0  0  0
 18 21  1  0  0  0  0
 19 20  1  0  0  0  0
 21 22  2  0  0  0  0
 21 26  1  0  0  0  0
 22 23  1  0  0  0  0
 23 24  2  0  0  0  0
 24 25  1  0  0  0  0
 25 26  2  0  0  0  0
 26 27  1  0  0  0  0
M  END
$$$$

 OpenBabel12191814062D

 20 21  0  0  0  0  0  0  0  0999 V2000
    1.4289   -4.1250    0.0000 C   0  0  0  0  0  0  0  0  0  0  0  0
    2.1434   -3.7125    0.0000 C   0  0  0  0  0  0  0  0  0  0  0  0
    2.1434   -2.8875    0.0000 O   0  0  0  0  0  0  0  0  0  0  0  0
    2.8579   -4.1250    0.0000 C   0  0  0  0  0  0  0  0  0  0  0  0
    3.5724   -3.7125    0.0000 C   0  0  0  0  0  0  0  0  0  0  0  0
    4.2868   -4.1250    0.0000 C   0  0  0  0  0  0  0  0  0  0  0  0
    5.0013   -3.7125    0.0000 C   0  0  0  0  0  0  0  0  0  0  0  0
    5.7158   -4.1250    0.0000 N   0  0  0  0  0  0  0  0  0  0  0  0
    6.4302   -3.7125    0.0000 C   0  0  0  0  0  0  0  0  0  0  0  0
    6.4302   -2.8875    0.0000 O   0  0  0  0  0  0  0  0  0  0  0  0
    7.1447   -4.1250    0.0000 N   0  0  0  0  0  0  0  0  0  0  0  0
    7.8592   -3.7125    0.0000 C   0  0  0  0  0  0  0  0  0  0  0  0
    7.1447   -4.9500    0.0000 C   0  0  0  0  0  0  0  0  0  0  0  0
    7.7578   -5.5020    0.0000 N   0  0  0  0  0  0  0  0  0  0  0  0
    7.4222   -6.2557    0.0000 C   0  0  0  0  0  0  0  0  0  0  0  0
    6.6018   -6.1695    0.0000 N   0  0  0  0  0  0  0  0  0  0  0  0
    6.0497   -6.7826    0.0000 C   0  0  0  0  0  0  0  0  0  0  0  0
    6.4302   -5.3625    0.0000 C   0  0  0  0  0  0  0  0  0  0  0  0
    5.7158   -4.9500    0.0000 C   0  0  0  0  0  0  0  0  0  0  0  0
    5.0013   -5.3625    0.0000 O   0  0  0  0  0  0  0  0  0  0  0  0
  1  2  1  0  0  0  0
  2  3  2  0  0  0  0
  2  4  1  0  0  0  0
  4  5  1  0  0  0  0
  5  6  1  0  0  0  0
  6  7  1  0  0  0  0
  7  8  1  0  0  0  0
  8  9  1  0  0  0  0
  8 19  1  0  0  0  0
  9 10  2  0  0  0  0
  9 11  1  0  0  0  0
 11 12  1  0  0  0  0
 11 13  1  0  0  0  0
 13 14  1  0  0  0  0
 13 18  2  0  0  0  0
 14 15  2  0  0  0  0
 15 16  1  0  0  0  0
 16 17  1  0  0  0  0
 16 18  1  0  0  0  0
 18 19  1  0  0  0  0
 19 20  2  0  0  0  0
M  END
$$$$

 OpenBabel12191814062D

 34 39  0  0  0  0  0  0  0  0999 V2000
    6.6461    2.7999    0.0000 C   0  0  0  0  0  0  0  0  0  0  0  0
    5.8507    2.5809    0.0000 C   0  0  0  0  0  0  0  0  0  0  0  0
    5.2633    3.1603    0.0000 O   0  0  0  0  0  0  0  0  0  0  0  0
    5.6426    1.7826    0.0000 N   0  0  0  0  0  0  0  0  0  0  0  0
    4.8744    1.4817    0.0000 C   0  0  3  0  0  0  0  0  0  0  0  0
    4.0761    1.6898    0.0000 N   0  0  0  0  0  0  0  0  0  0  0  0
    3.6315    0.9948    0.0000 C   0  0  3  0  0  0  0  0  0  0  0  0
    4.1551    0.3572    0.0000 C   0  0  0  0  0  0  0  0  0  0  0  0
    4.9232    0.6581    0.0000 C   0  0  3  0  0  0  0  0  0  0  0  0
    5.7215    0.4500    0.0000 C   0  0  0  0  0  0  0  0  0  0  0  0
    6.1011   -0.2825    0.0000 C   0  0  0  0  0  0  0  0  0  0  0  0
    6.9252   -0.3200    0.0000 C   0  0  0  0  0  0  0  0  0  0  0  0
    7.3698    0.3750    0.0000 C   0  0  0  0  0  0  0  0  0  0  0  0
    6.9903    1.1075    0.0000 C   0  0  0  0  0  0  0  0  0  0  0  0
    6.1661    1.1450    0.0000 C   0  0  0  0  0  0  0  0  0  0  0  0
    4.9720   -0.1654    0.0000 C   0  0  0  0  0  0  0  0  0  0  0  0
    5.7956   -0.1166    0.0000 C   0  0  0  0  0  0  0  0  0  0  0  0
    4.1485   -0.2142    0.0000 C   0  0  0  0  0  0  0  0  0  0  0  0
    5.0208   -0.9890    0.0000 C   0  0  0  0  0  0  0  0  0  0  0  0
    4.3320   -1.4430    0.0000 C   0  0  0  0  0  0  0  0  0  0  0  0
    2.8074    1.0324    0.0000 C   0  0  0  0  0  0  0  0  0  0  0  0
    2.3628    0.3374    0.0000 N   0  0  0  0  0  0  0  0  0  0  0  0
    1.5386    0.3750    0.0000 C   0  0  0  0  0  0  0  0  0  0  0  0
    1.0940   -0.3200    0.0000 C   0  0  0  0  0  0  0  0  0  0  0  0
    0.2699   -0.2825    0.0000 C   0  0  0  0  0  0  0  0  0  0  0  0
   -0.1097    0.4500    0.0000 C   0  0  0  0  0  0  0  0  0  0  0  0
    0.3349    1.1450    0.0000 C   0  0  0  0  0  0  0  0  0  0  0  0
    1.1591    1.1075    0.0000 C   0  0  0  0  0  0  0  0  0  0  0  0
    1.6037    1.8024    0.0000 C   0  0  0  0  0  0  0  0  0  0  0  0
    1.2241    2.5349    0.0000 O   0  0  0  0  0  0  0  0  0  0  0  0
    2.4278    1.7649    0.0000 N   0  0  0  0  0  0  0  0  0  0  0  0
    2.8724    2.4598    0.0000 C   0  0  0  0  0  0  0  0  0  0  0  0
    3.6965    2.4223    0.0000 C   0  0  0  0  0  0  0  0  0  0  0  0
    4.1411    3.1172    0.0000 O   0  0  0  0  0  0  0  0  0  0  0  0
  1  2  1  0  0  0  0
  2  3  2  0  0  0  0
  2  4  1  0  0  0  0
  4  5  1  0  0  0  0
  4 15  1  0  0  0  0
  5  6  1  0  0  0  0
  5  9  1  0  0  0  0
  6  7  1  0  0  0  0
  6 33  1  0  0  0  0
  7  8  1  0  0  0  0
  7 21  1  0  0  0  0
  8  9  1  0  0  0  0
  9 10  1  0  0  0  0
  9 16  1  0  0  0  0
 10 11  2  0  0  0  0
 10 15  1  0  0  0  0
 11 12  1  0  0  0  0
 12 13  2  0  0  0  0
 13 14  1  0  0  0  0
 14 15  2  0  0  0  0
 16 17  1  0  0  0  0
 16 18  1  0  0  0  0
 16 19  1  0  0  0  0
 19 20  2  0  0  0  0
 21 22  2  0  0  0  0
 21 31  1  0  0  0  0
 22 23  1  0  0  0  0
 23 24  2  0  0  0  0
 23 28  1  0  0  0  0
 24 25  1  0  0  0  0
 25 26  2  0  0  0  0
 26 27  1  0  0  0  0
 27 28  2  0  0  0  0
 28 29  1  0  0  0  0
 29 30  2  0  0  0  0
 29 31  1  0  0  0  0
 31 32  1  0  0  0  0
 32 33  1  0  0  0  0
 33 34  2  0  0  0  0
M  END
$$$$

 OpenBabel12191814062D

 36 40  0  0  0  0  0  0  0  0999 V2000
    5.9609   -8.3337    0.0000 C   0  0  0  0  0  0  0  0  0  0  0  0
    5.1404   -8.4200    0.0000 C   0  0  0  0  0  0  0  0  0  0  0  0
    4.8048   -9.1736    0.0000 O   0  0  0  0  0  0  0  0  0  0  0  0
    4.6555   -7.7525    0.0000 N   0  0  0  0  0  0  0  0  0  0  0  0
    3.8350   -7.8388    0.0000 C   0  0  0  0  0  0  0  0  0  0  0  0
    3.3501   -7.1713    0.0000 C   0  0  0  0  0  0  0  0  0  0  0  0
    3.6856   -6.4177    0.0000 N   0  0  0  0  0  0  0  0  0  0  0  0
    4.5061   -6.3314    0.0000 C   0  0  0  0  0  0  0  0  0  0  0  0
    4.9910   -6.9989    0.0000 C   0  0  0  0  0  0  0  0  0  0  0  0
    3.2007   -5.7502    0.0000 C   0  0  0  0  0  0  0  0  0  0  0  0
    2.3802   -5.8365    0.0000 C   0  0  0  0  0  0  0  0  0  0  0  0
    1.8953   -5.1690    0.0000 C   0  0  0  0  0  0  0  0  0  0  0  0
    2.2308   -4.4153    0.0000 C   0  0  0  0  0  0  0  0  0  0  0  0
    1.7459   -3.7479    0.0000 O   0  0  0  0  0  0  0  0  0  0  0  0
    2.0815   -2.9942    0.0000 C   0  0  0  0  0  0  0  0  0  0  0  0
    1.5966   -2.3268    0.0000 C   0  0  3  0  0  0  0  0  0  0  0  0
    0.7716   -2.3268    0.0000 C   0  0  0  0  0  0  0  0  0  0  0  0
    0.5166   -1.5422    0.0000 O   0  0  0  0  0  0  0  0  0  0  0  0
    1.1841   -1.0572    0.0000 C   0  0  3  0  0  0  0  0  0  0  0  0
    0.6320   -0.4441    0.0000 C   0  0  0  0  0  0  0  0  0  0  0  0
   -0.1749   -0.6157    0.0000 N   0  0  0  0  0  0  0  0  0  0  0  0
   -0.7880   -0.0636    0.0000 C   0  0  0  0  0  0  0  0  0  0  0  0
   -1.5025   -0.4761    0.0000 C   0  0  0  0  0  0  0  0  0  0  0  0
   -1.3310   -1.2831    0.0000 N   0  0  0  0  0  0  0  0  0  0  0  0
   -0.5105   -1.3694    0.0000 C   0  0  0  0  0  0  0  0  0  0  0  0
    1.8515   -1.5422    0.0000 O   0  0  0  0  0  0  0  0  0  0  0  0
    1.7361   -0.4441    0.0000 C   0  0  0  0  0  0  0  0  0  0  0  0
    1.4812    0.3405    0.0000 C   0  0  0  0  0  0  0  0  0  0  0  0
    2.0332    0.9536    0.0000 C   0  0  0  0  0  0  0  0  0  0  0  0
    2.8402    0.7820    0.0000 C   0  0  0  0  0  0  0  0  0  0  0  0
    3.3922    1.3951    0.0000 Cl  0  0  0  0  0  0  0  0  0  0  0  0
    3.0951   -0.0026    0.0000 C   0  0  0  0  0  0  0  0  0  0  0  0
    2.5431   -0.6157    0.0000 C   0  0  0  0  0  0  0  0  0  0  0  0
    2.7980   -1.4003    0.0000 Cl  0  0  0  0  0  0  0  0  0  0  0  0
    3.0513   -4.3291    0.0000 C   0  0  0  0  0  0  0  0  0  0  0  0
    3.5362   -4.9965    0.0000 C   0  0  0  0  0  0  0  0  0  0  0  0
  1  2  1  0  0  0  0
  2  3  2  0  0  0  0
  2  4  1  0  0  0  0
  4  5  1  0  0  0  0
  4  9  1  0  0  0  0
  5  6  1  0  0  0  0
  6  7  1  0  0  0  0
  7  8  1  0  0  0  0
  7 10  1  0  0  0  0
  8  9  1  0  0  0  0
 10 11  2  0  0  0  0
 10 36  1  0  0  0  0
 11 12  1  0  0  0  0
 12 13  2  0  0  0  0
 13 14  1  0  0  0  0
 13 35  1  0  0  0  0
 14 15  1  0  0  0  0
 15 16  1  0  0  0  0
 16 17  1  0  0  0  0
 16 26  1  0  0  0  0
 17 18  1  0  0  0  0
 18 19  1  0  0  0  0
 19 20  1  0  0  0  0
 19 26  1  0  0  0  0
 19 27  1  0  0  0  0
 20 21  1  0  0  0  0
 21 22  1  0  0  0  0
 21 25  1  0  0  0  0
 22 23  2  0  0  0  0
 23 24  1  0  0  0  0
 24 25  2  0  0  0  0
 27 28  2  0  0  0  0
 27 33  1  0  0  0  0
 28 29  1  0  0  0  0
 29 30  2  0  0  0  0
 30 31  1  0  0  0  0
 30 32  1  0  0  0  0
 32 33  2  0  0  0  0
 33 34  1  0  0  0  0
 35 36  2  0  0  0  0
M  END
$$$$

 OpenBabel12191814062D

 36 40  0  0  0  0  0  0  0  0999 V2000
    5.9609   -8.3337    0.0000 C   0  0  0  0  0  0  0  0  0  0  0  0
    5.1404   -8.4200    0.0000 C   0  0  0  0  0  0  0  0  0  0  0  0
    4.8048   -9.1736    0.0000 O   0  0  0  0  0  0  0  0  0  0  0  0
    4.6555   -7.7525    0.0000 N   0  0  0  0  0  0  0  0  0  0  0  0
    3.8350   -7.8388    0.0000 C   0  0  0  0  0  0  0  0  0  0  0  0
    3.3501   -7.1713    0.0000 C   0  0  0  0  0  0  0  0  0  0  0  0
    3.6856   -6.4177    0.0000 N   0  0  0  0  0  0  0  0  0  0  0  0
    4.5061   -6.3314    0.0000 C   0  0  0  0  0  0  0  0  0  0  0  0
    4.9910   -6.9989    0.0000 C   0  0  0  0  0  0  0  0  0  0  0  0
    3.2007   -5.7502    0.0000 C   0  0  0  0  0  0  0  0  0  0  0  0
    2.3802   -5.8365    0.0000 C   0  0  0  0  0  0  0  0  0  0  0  0
    1.8953   -5.1690    0.0000 C   0  0  0  0  0  0  0  0  0  0  0  0
    2.2308   -4.4153    0.0000 C   0  0  0  0  0  0  0  0  0  0  0  0
    1.7459   -3.7479    0.0000 O   0  0  0  0  0  0  0  0  0  0  0  0
    2.0815   -2.9942    0.0000 C   0  0  0  0  0  0  0  0  0  0  0  0
    1.5966   -2.3268    0.0000 C   0  0  3  0  0  0  0  0  0  0  0  0
    0.7716   -2.3268    0.0000 C   0  0  0  0  0  0  0  0  0  0  0  0
    0.5166   -1.5422    0.0000 O   0  0  0  0  0  0  0  0  0  0  0  0
    1.1841   -1.0572    0.0000 C   0  0  3  0  0  0  0  0  0  0  0  0
    0.6320   -0.4441    0.0000 C   0  0  0  0  0  0  0  0  0  0  0  0
   -0.1749   -0.6157    0.0000 N   0  0  0  0  0  0  0  0  0  0  0  0
   -0.7880   -0.0636    0.0000 C   0  0  0  0  0  0  0  0  0  0  0  0
   -1.5025   -0.4761    0.0000 C   0  0  0  0  0  0  0  0  0  0  0  0
   -1.3310   -1.2831    0.0000 N   0  0  0  0  0  0  0  0  0  0  0  0
   -0.5105   -1.3694    0.0000 N   0  0  0  0  0  0  0  0  0  0  0  0
    1.8515   -1.5422    0.0000 O   0  0  0  0  0  0  0  0  0  0  0  0
    1.7361   -0.4441    0.0000 C   0  0  0  0  0  0  0  0  0  0  0  0
    1.4812    0.3405    0.0000 C   0  0  0  0  0  0  0  0  0  0  0  0
    2.0332    0.9536    0.0000 C   0  0  0  0  0  0  0  0  0  0  0  0
    2.8402    0.7820    0.0000 C   0  0  0  0  0  0  0  0  0  0  0  0
    3.3922    1.3951    0.0000 Cl  0  0  0  0  0  0  0  0  0  0  0  0
    3.0951   -0.0026    0.0000 C   0  0  0  0  0  0  0  0  0  0  0  0
    2.5431   -0.6157    0.0000 C   0  0  0  0  0  0  0  0  0  0  0  0
    2.7980   -1.4003    0.0000 Cl  0  0  0  0  0  0  0  0  0  0  0  0
    3.0513   -4.3291    0.0000 C   0  0  0  0  0  0  0  0  0  0  0  0
    3.5362   -4.9965    0.0000 C   0  0  0  0  0  0  0  0  0  0  0  0
  1  2  1  0  0  0  0
  2  3  2  0  0  0  0
  2  4  1  0  0  0  0
  4  5  1  0  0  0  0
  4  9  1  0  0  0  0
  5  6  1  0  0  0  0
  6  7  1  0  0  0  0
  7  8  1  0  0  0  0
  7 10  1  0  0  0  0
  8  9  1  0  0  0  0
 10 11  2  0  0  0  0
 10 36  1  0  0  0  0
 11 12  1  0  0  0  0
 12 13  2  0  0  0  0
 13 14  1  0  0  0  0
 13 35  1  0  0  0  0
 14 15  1  0  0  0  0
 15 16  1  0  0  0  0
 16 17  1  0  0  0  0
 16 26  1  0  0  0  0
 17 18  1  0  0  0  0
 18 19  1  0  0  0  0
 19 20  1  0  0  0  0
 19 26  1  0  0  0  0
 19 27  1  0  0  0  0
 20 21  1  0  0  0  0
 21 22  1  0  0  0  0
 21 25  1  0  0  0  0
 22 23  2  0  0  0  0
 23 24  1  0  0  0  0
 24 25  2  0  0  0  0
 27 28  2  0  0  0  0
 27 33  1  0  0  0  0
 28 29  1  0  0  0  0
 29 30  2  0  0  0  0
 30 31  1  0  0  0  0
 30 32  1  0  0  0  0
 32 33  2  0  0  0  0
 33 34  1  0  0  0  0
 35 36  2  0  0  0  0
M  END
$$$$

 OpenBabel12191814062D

 39 44  0  0  0  0  0  0  0  0999 V2000
   -3.8752   -3.7869    0.0000 C   0  0  0  0  0  0  0  0  0  0  0  0
   -3.0682   -3.6154    0.0000 C   0  0  0  0  0  0  0  0  0  0  0  0
   -2.5162   -4.2285    0.0000 O   0  0  0  0  0  0  0  0  0  0  0  0
   -2.8133   -2.8308    0.0000 N   0  0  0  0  0  0  0  0  0  0  0  0
   -2.0063   -2.6593    0.0000 C   0  0  0  0  0  0  0  0  0  0  0  0
   -1.7514   -1.8746    0.0000 C   0  0  0  0  0  0  0  0  0  0  0  0
   -0.9444   -1.7031    0.0000 C   0  0  0  0  0  0  0  0  0  0  0  0
   -0.3924   -2.3162    0.0000 C   0  0  0  0  0  0  0  0  0  0  0  0
   -0.6473   -3.1008    0.0000 C   0  0  0  0  0  0  0  0  0  0  0  0
   -1.4543   -3.2723    0.0000 C   0  0  0  0  0  0  0  0  0  0  0  0
    0.4146   -2.1447    0.0000 C   0  0  0  0  0  0  0  0  0  0  0  0
    0.6695   -1.3601    0.0000 N   0  0  0  0  0  0  0  0  0  0  0  0
    1.4765   -1.1885    0.0000 C   0  0  0  0  0  0  0  0  0  0  0  0
    1.7314   -0.4039    0.0000 N   0  0  0  0  0  0  0  0  0  0  0  0
    1.1794    0.2092    0.0000 C   0  0  0  0  0  0  0  0  0  0  0  0
    1.4343    0.9938    0.0000 C   0  0  0  0  0  0  0  0  0  0  0  0
    2.2413    1.1653    0.0000 N   0  0  0  0  0  0  0  0  0  0  0  0
    2.4963    1.9500    0.0000 C   0  0  0  0  0  0  0  0  0  0  0  0
    1.9442    2.5631    0.0000 C   0  0  0  0  0  0  0  0  0  0  0  0
    2.1992    3.3477    0.0000 C   0  0  0  0  0  0  0  0  0  0  0  0
    1.6471    3.9608    0.0000 C   0  0  0  0  0  0  0  0  0  0  0  0
    1.9021    4.7454    0.0000 C   0  0  0  0  0  0  0  0  0  0  0  0
    2.7090    4.9169    0.0000 C   0  0  0  0  0  0  0  0  0  0  0  0
    3.2611    4.3038    0.0000 C   0  0  0  0  0  0  0  0  0  0  0  0
    3.0061    3.5192    0.0000 C   0  0  0  0  0  0  0  0  0  0  0  0
    2.7933    0.5522    0.0000 C   0  0  0  0  0  0  0  0  0  0  0  0
    2.5384   -0.2324    0.0000 C   0  0  0  0  0  0  0  0  0  0  0  0
    2.0285   -1.8016    0.0000 C   0  0  0  0  0  0  0  0  0  0  0  0
    2.8535   -1.8016    0.0000 N   0  0  0  0  0  0  0  0  0  0  0  0
    3.4056   -1.1885    0.0000 C   0  0  0  0  0  0  0  0  0  0  0  0
    4.2125   -1.3601    0.0000 C   0  0  0  0  0  0  0  0  0  0  0  0
    4.4675   -2.1447    0.0000 C   0  0  0  0  0  0  0  0  0  0  0  0
    3.9154   -2.7578    0.0000 C   0  0  0  0  0  0  0  0  0  0  0  0
    3.1085   -2.5862    0.0000 C   0  0  0  0  0  0  0  0  0  0  0  0
    2.4410   -3.0712    0.0000 C   0  0  0  0  0  0  0  0  0  0  0  0
    2.4410   -3.8962    0.0000 C   0  0  0  0  0  0  0  0  0  0  0  0
    2.4410   -4.7212    0.0000 N   0  0  0  0  0  0  0  0  0  0  0  0
    1.7736   -2.5862    0.0000 C   0  0  0  0  0  0  0  0  0  0  0  0
    0.9666   -2.7578    0.0000 N   0  0  0  0  0  0  0  0  0  0  0  0
  1  2  1  0  0  0  0
  2  3  2  0  0  0  0
  2  4  1  0  0  0  0
  4  5  1  0  0  0  0
  5  6  2  0  0  0  0
  5 10  1  0  0  0  0
  6  7  1  0  0  0  0
  7  8  2  0  0  0  0
  8  9  1  0  0  0  0
  8 11  1  0  0  0  0
  9 10  2  0  0  0  0
 11 12  2  0  0  0  0
 11 39  1  0  0  0  0
 12 13  1  0  0  0  0
 13 14  1  0  0  0  0
 13 28  2  0  0  0  0
 14 15  1  0  0  0  0
 14 27  1  0  0  0  0
 15 16  1  0  0  0  0
 16 17  1  0  0  0  0
 17 18  1  0  0  0  0
 17 26  1  0  0  0  0
 18 19  1  0  0  0  0
 19 20  1  0  0  0  0
 20 21  2  0  0  0  0
 20 25  1  0  0  0  0
 21 22  1  0  0  0  0
 22 23  2  0  0  0  0
 23 24  1  0  0  0  0
 24 25  2  0  0  0  0
 26 27  1  0  0  0  0
 28 29  1  0  0  0  0
 28 38  1  0  0  0  0
 29 30  1  0  0  0  0
 29 34  1  0  0  0  0
 30 31  1  0  0  0  0
 31 32  1  0  0  0  0
 32 33  1  0  0  0  0
 33 34  1  0  0  0  0
 34 35  2  0  0  0  0
 35 36  1  0  0  0  0
 35 38  1  0  0  0  0
 36 37  3  0  0  0  0
 38 39  2  0  0  0  0
M  END
$$$$

 OpenBabel12191814062D

 30 32  0  0  0  0  0  0  0  0999 V2000
    2.5559   -3.6020    0.0000 C   0  0  0  0  0  0  0  0  0  0  0  0
    2.1434   -2.8875    0.0000 C   0  0  0  0  0  0  0  0  0  0  0  0
    1.3184   -2.8875    0.0000 O   0  0  0  0  0  0  0  0  0  0  0  0
    2.5559   -2.1730    0.0000 O   0  0  0  0  0  0  0  0  0  0  0  0
    3.3809   -2.1730    0.0000 C   0  0  3  0  0  0  0  0  0  0  0  0
    3.7934   -2.8875    0.0000 C   0  0  0  0  0  0  0  0  0  0  0  0
    4.6184   -2.8875    0.0000 O   0  0  0  0  0  0  0  0  0  0  0  0
    5.0309   -3.6020    0.0000 C   0  0  0  0  0  0  0  0  0  0  0  0
    5.8559   -3.6020    0.0000 C   0  0  0  0  0  0  0  0  0  0  0  0
    6.2684   -4.3164    0.0000 C   0  0  0  0  0  0  0  0  0  0  0  0
    5.8559   -5.0309    0.0000 C   0  0  0  0  0  0  0  0  0  0  0  0
    5.0309   -5.0309    0.0000 C   0  0  0  0  0  0  0  0  0  0  0  0
    4.6184   -4.3164    0.0000 C   0  0  0  0  0  0  0  0  0  0  0  0
    3.7934   -4.3164    0.0000 C   0  0  0  0  0  0  0  0  0  0  0  0
    3.3809   -3.6020    0.0000 O   0  0  0  0  0  0  0  0  0  0  0  0
    3.3809   -5.0309    0.0000 C   0  0  0  0  0  0  0  0  0  0  0  0
    2.5559   -5.0309    0.0000 C   0  0  0  0  0  0  0  0  0  0  0  0
    2.1434   -5.7454    0.0000 C   0  0  0  0  0  0  0  0  0  0  0  0
    2.5559   -6.4599    0.0000 C   0  0  0  0  0  0  0  0  0  0  0  0
    2.1434   -7.1743    0.0000 C   0  0  0  0  0  0  0  0  0  0  0  0
    1.3184   -7.1743    0.0000 C   0  0  0  0  0  0  0  0  0  0  0  0
    0.9059   -6.4599    0.0000 C   0  0  0  0  0  0  0  0  0  0  0  0
    1.3184   -5.7454    0.0000 C   0  0  0  0  0  0  0  0  0  0  0  0
    3.7934   -1.4586    0.0000 C   0  0  0  0  0  0  0  0  0  0  0  0
    4.6184   -1.4586    0.0000 N   0  0  0  0  0  0  0  0  0  0  0  0
    5.0309   -0.7441    0.0000 C   0  0  0  0  0  0  0  0  0  0  0  0
    5.8559   -0.7441    0.0000 C   0  0  0  0  0  0  0  0  0  0  0  0
    6.2684   -1.4586    0.0000 C   0  0  0  0  0  0  0  0  0  0  0  0
    5.8559   -2.1730    0.0000 C   0  0  0  0  0  0  0  0  0  0  0  0
    5.0309   -2.1730    0.0000 C   0  0  0  0  0  0  0  0  0  0  0  0
  1  2  1  0  0  0  0
  2  3  2  0  0  0  0
  2  4  1  0  0  0  0
  4  5  1  0  0  0  0
  5  6  1  0  0  0  0
  5 24  1  0  0  0  0
  6  7  1  0  0  0  0
  7  8  1  0  0  0  0
  8  9  2  0  0  0  0
  8 13  1  0  0  0  0
  9 10  1  0  0  0  0
 10 11  2  0  0  0  0
 11 12  1  0  0  0  0
 12 13  2  0  0  0  0
 13 14  1  0  0  0  0
 14 15  2  0  0  0  0
 14 16  1  0  0  0  0
 16 17  1  0  0  0  0
 17 18  1  0  0  0  0
 18 19  2  0  0  0  0
 18 23  1  0  0  0  0
 19 20  1  0  0  0  0
 20 21  2  0  0  0  0
 21 22  1  0  0  0  0
 22 23  2  0  0  0  0
 24 25  1  0  0  0  0
 25 26  1  0  0  0  0
 25 30  1  0  0  0  0
 26 27  1  0  0  0  0
 27 28  1  0  0  0  0
 28 29  1  0  0  0  0
 29 30  1  0  0  0  0
M  END
$$$$

 OpenBabel12191814062D

 28 31  0  0  0  0  0  0  0  0999 V2000
    1.7026   -3.4155    0.0000 C   0  0  0  0  0  0  0  0  0  0  0  0
    2.4450   -3.7753    0.0000 C   0  0  0  0  0  0  0  0  0  0  0  0
    2.5045   -4.5982    0.0000 O   0  0  0  0  0  0  0  0  0  0  0  0
    3.1278   -3.3123    0.0000 O   0  0  0  0  0  0  0  0  0  0  0  0
    3.0683   -2.4895    0.0000 C   0  0  3  0  0  0  0  0  0  0  0  0
    2.8390   -1.6970    0.0000 C   0  0  0  0  0  0  0  0  0  0  0  0
    3.5218   -1.2340    0.0000 C   0  0  0  0  0  0  0  0  0  0  0  0
    4.1731   -1.7404    0.0000 C   0  0  3  0  0  0  0  0  0  0  0  0
    4.9853   -1.5952    0.0000 C   0  0  3  0  0  0  0  0  0  0  0  0
    5.2655   -0.8192    0.0000 C   0  0  0  0  0  0  0  0  0  0  0  0
    6.0777   -0.6740    0.0000 C   0  0  0  0  0  0  0  0  0  0  0  0
    6.3580    0.1019    0.0000 C   0  0  0  0  0  0  0  0  0  0  0  0
    6.6095   -1.3047    0.0000 C   0  0  0  0  0  0  0  0  0  0  0  0
    7.4216   -1.1595    0.0000 C   0  0  0  0  0  0  0  0  0  0  0  0
    7.9534   -1.7902    0.0000 C   0  0  0  0  0  0  0  0  0  0  0  0
    8.7655   -1.6450    0.0000 O   0  0  0  0  0  0  0  0  0  0  0  0
    7.6731   -2.5662    0.0000 C   0  0  0  0  0  0  0  0  0  0  0  0
    6.8610   -2.7114    0.0000 C   0  0  0  0  0  0  0  0  0  0  0  0
    6.3292   -2.0807    0.0000 C   0  0  3  0  0  0  0  0  0  0  0  0
    6.0489   -2.8566    0.0000 C   0  0  0  0  0  0  0  0  0  0  0  0
    5.5171   -2.2259    0.0000 C   0  0  3  0  0  0  0  0  0  0  0  0
    5.2368   -3.0018    0.0000 C   0  0  0  0  0  0  0  0  0  0  0  0
    4.4247   -3.1470    0.0000 C   0  0  0  0  0  0  0  0  0  0  0  0
    3.8928   -2.5163    0.0000 C   0  0  3  0  0  0  0  0  0  0  0  0
    3.5330   -3.2587    0.0000 C   0  0  0  0  0  0  0  0  0  0  0  0
    2.2561   -2.6347    0.0000 C   0  0  0  0  0  0  0  0  0  0  0  0
    1.7243   -2.0040    0.0000 C   0  0  0  0  0  0  0  0  0  0  0  0
    1.5733   -3.0977    0.0000 O   0  0  0  0  0  0  0  0  0  0  0  0
  1  2  1  0  0  0  0
  2  3  2  0  0  0  0
  2  4  1  0  0  0  0
  4  5  1  0  0  0  0
  5  6  1  0  0  0  0
  5 24  1  0  0  0  0
  5 26  1  0  0  0  0
  6  7  1  0  0  0  0
  7  8  1  0  0  0  0
  8  9  1  0  0  0  0
  8 24  1  0  0  0  0
  9 10  1  0  0  0  0
  9 21  1  0  0  0  0
 10 11  2  0  0  0  0
 11 12  1  0  0  0  0
 11 13  1  0  0  0  0
 13 14  2  0  0  0  0
 13 19  1  0  0  0  0
 14 15  1  0  0  0  0
 15 16  2  0  0  0  0
 15 17  1  0  0  0  0
 17 18  1  0  0  0  0
 18 19  1  0  0  0  0
 19 20  1  0  0  0  0
 19 21  1  0  0  0  0
 21 22  1  0  0  0  0
 22 23  1  0  0  0  0
 23 24  1  0  0  0  0
 24 25  1  0  0  0  0
 26 27  1  0  0  0  0
 26 28  2  0  0  0  0
M  END
$$$$

 OpenBabel12191814062D

 29 31  0  0  0  0  0  0  0  0999 V2000
    2.3645    3.2704    0.0000 C   0  0  0  0  0  0  0  0  0  0  0  0
    1.5395    3.2704    0.0000 C   0  0  0  0  0  0  0  0  0  0  0  0
    1.1270    3.9849    0.0000 O   0  0  0  0  0  0  0  0  0  0  0  0
    1.1270    2.5559    0.0000 O   0  0  0  0  0  0  0  0  0  0  0  0
    1.5395    1.8414    0.0000 C   0  0  3  0  0  0  0  0  0  0  0  0
    2.3645    1.8414    0.0000 C   0  0  3  0  0  0  0  0  0  0  0  0
    2.7770    2.5559    0.0000 O   0  0  0  0  0  0  0  0  0  0  0  0
    2.7770    1.1270    0.0000 C   0  0  3  0  0  0  0  0  0  0  0  0
    3.6020    1.1270    0.0000 C   0  0  0  0  0  0  0  0  0  0  0  0
    3.4587    1.9394    0.0000 C   0  0  0  0  0  0  0  0  0  0  0  0
    4.3772    1.4091    0.0000 C   0  0  0  0  0  0  0  0  0  0  0  0
    4.0145    0.4125    0.0000 C   0  0  0  0  0  0  0  0  0  0  0  0
    3.6020   -0.3020    0.0000 C   0  0  0  0  0  0  0  0  0  0  0  0
    2.7770   -0.3020    0.0000 C   0  0  3  0  0  0  0  0  0  0  0  0
    2.3645   -1.0164    0.0000 O   0  0  0  0  0  0  0  0  0  0  0  0
    2.3645    0.4125    0.0000 C   0  0  3  0  0  0  0  0  0  0  0  0
    1.9520   -0.3020    0.0000 C   0  0  0  0  0  0  0  0  0  0  0  0
    1.5395    0.4125    0.0000 C   0  0  3  0  0  0  0  0  0  0  0  0
    1.4532   -0.4080    0.0000 O   0  0  0  0  0  0  0  0  0  0  0  0
    1.1270   -0.3020    0.0000 C   0  0  0  0  0  0  0  0  0  0  0  0
    1.5395   -1.0164    0.0000 O   0  0  0  0  0  0  0  0  0  0  0  0
    0.3020   -0.3020    0.0000 C   0  0  0  0  0  0  0  0  0  0  0  0
   -0.1105    0.4125    0.0000 C   0  0  3  0  0  0  0  0  0  0  0  0
   -0.7425    0.9428    0.0000 C   0  0  0  0  0  0  0  0  0  0  0  0
    0.3020    1.1270    0.0000 O   0  0  0  0  0  0  0  0  0  0  0  0
    1.1270    1.1270    0.0000 C   0  0  3  0  0  0  0  0  0  0  0  0
    0.7145    1.8414    0.0000 C   0  0  0  0  0  0  0  0  0  0  0  0
   -0.7425   -0.1178    0.0000 C   0  0  0  0  0  0  0  0  0  0  0  0
   -1.5178    0.1644    0.0000 C   0  0  0  0  0  0  0  0  0  0  0  0
  1  2  1  0  0  0  0
  2  3  2  0  0  0  0
  2  4  1  0  0  0  0
  4  5  1  0  0  0  0
  5  6  1  0  0  0  0
  5 26  1  0  0  0  0
  6  7  1  0  0  0  0
  6  8  1  0  0  0  0
  8  9  1  0  0  0  0
  8 16  1  0  0  0  0
  9 10  1  0  0  0  0
  9 11  1  0  0  0  0
  9 12  1  0  0  0  0
 12 13  1  0  0  0  0
 13 14  1  0  0  0  0
 14 15  1  0  0  0  0
 14 16  1  0  0  0  0
 16 17  1  0  0  0  0
 16 18  1  0  0  0  0
 18 19  1  0  0  0  0
 18 20  1  0  0  0  0
 18 26  1  0  0  0  0
 20 21  2  0  0  0  0
 20 22  1  0  0  0  0
 22 23  1  0  0  0  0
 23 24  1  0  0  0  0
 23 25  1  0  0  0  0
 23 28  1  0  0  0  0
 25 26  1  0  0  0  0
 26 27  1  0  0  0  0
 28 29  2  0  0  0  0
M  END
$$$$

 OpenBabel12191814062D

 27 29  0  0  0  0  0  0  0  0999 V2000
   -0.7145   -2.8875    0.0000 C   0  0  0  0  0  0  0  0  0  0  0  0
   -1.4289   -2.4750    0.0000 C   0  0  0  0  0  0  0  0  0  0  0  0
   -2.1434   -2.8875    0.0000 O   0  0  0  0  0  0  0  0  0  0  0  0
   -1.4289   -1.6500    0.0000 O   0  0  0  0  0  0  0  0  0  0  0  0
   -0.7145   -1.2375    0.0000 C   0  0  0  0  0  0  0  0  0  0  0  0
    0.0000   -1.6500    0.0000 C   0  0  0  0  0  0  0  0  0  0  0  0
    0.0000   -2.4750    0.0000 O   0  0  0  0  0  0  0  0  0  0  0  0
    0.7145   -1.2375    0.0000 C   0  0  0  0  0  0  0  0  0  0  0  0
    0.7145   -0.4125    0.0000 C   0  0  0  0  0  0  0  0  0  0  0  0
    1.4289   -0.0000    0.0000 O   0  0  0  0  0  0  0  0  0  0  0  0
    2.1434   -0.4125    0.0000 C   0  0  0  0  0  0  0  0  0  0  0  0
    2.1434   -1.2375    0.0000 C   0  0  0  0  0  0  0  0  0  0  0  0
    1.4289   -1.6500    0.0000 C   0  0  0  0  0  0  0  0  0  0  0  0
    1.4289   -2.4750    0.0000 O   0  0  0  0  0  0  0  0  0  0  0  0
    2.8579   -0.0000    0.0000 C   0  0  0  0  0  0  0  0  0  0  0  0
    2.8579    0.8250    0.0000 C   0  0  0  0  0  0  0  0  0  0  0  0
    3.5724    1.2375    0.0000 C   0  0  0  0  0  0  0  0  0  0  0  0
    4.2868    0.8250    0.0000 C   0  0  0  0  0  0  0  0  0  0  0  0
    4.2868   -0.0000    0.0000 C   0  0  0  0  0  0  0  0  0  0  0  0
    3.5724   -0.4125    0.0000 C   0  0  0  0  0  0  0  0  0  0  0  0
    0.0000   -0.0000    0.0000 C   0  0  0  0  0  0  0  0  0  0  0  0
    0.0000    0.8250    0.0000 Br  0  0  0  0  0  0  0  0  0  0  0  0
   -0.7145   -0.4125    0.0000 C   0  0  0  0  0  0  0  0  0  0  0  0
   -1.4289    0.0000    0.0000 O   0  0  0  0  0  0  0  0  0  0  0  0
   -2.1434   -0.4125    0.0000 C   0  0  0  0  0  0  0  0  0  0  0  0
   -2.8579    0.0000    0.0000 C   0  0  0  0  0  0  0  0  0  0  0  0
   -2.1434   -1.2375    0.0000 O   0  0  0  0  0  0  0  0  0  0  0  0
  1  2  1  0  0  0  0
  2  3  2  0  0  0  0
  2  4  1  0  0  0  0
  4  5  1  0  0  0  0
  5  6  2  0  0  0  0
  5 23  1  0  0  0  0
  6  7  1  0  0  0  0
  6  8  1  0  0  0  0
  8  9  2  0  0  0  0
  8 13  1  0  0  0  0
  9 10  1  0  0  0  0
  9 21  1  0  0  0  0
 10 11  1  0  0  0  0
 11 12  2  0  0  0  0
 11 15  1  0  0  0  0
 12 13  1  0  0  0  0
 13 14  2  0  0  0  0
 15 16  2  0  0  0  0
 15 20  1  0  0  0  0
 16 17  1  0  0  0  0
 17 18  2  0  0  0  0
 18 19  1  0  0  0  0
 19 20  2  0  0  0  0
 21 22  1  0  0  0  0
 21 23  2  0  0  0  0
 23 24  1  0  0  0  0
 24 25  1  0  0  0  0
 25 26  1  0  0  0  0
 25 27  2  0  0  0  0
M  END
$$$$

 OpenBabel12191814062D

 23 25  0  0  0  0  0  0  0  0999 V2000
   -0.7145   -2.8875    0.0000 C   0  0  0  0  0  0  0  0  0  0  0  0
    0.0000   -2.4750    0.0000 C   0  0  0  0  0  0  0  0  0  0  0  0
    0.7145   -2.8875    0.0000 O   0  0  0  0  0  0  0  0  0  0  0  0
    0.0000   -1.6500    0.0000 O   0  0  0  0  0  0  0  0  0  0  0  0
    0.7145   -1.2375    0.0000 C   0  0  0  0  0  0  0  0  0  0  0  0
    0.7145   -0.4125    0.0000 C   0  0  0  0  0  0  0  0  0  0  0  0
    0.0000    0.0000    0.0000 O   0  0  0  0  0  0  0  0  0  0  0  0
    1.4289    0.0000    0.0000 C   0  0  0  0  0  0  0  0  0  0  0  0
    2.1434   -0.4125    0.0000 C   0  0  0  0  0  0  0  0  0  0  0  0
    2.8579    0.0000    0.0000 O   0  0  0  0  0  0  0  0  0  0  0  0
    3.5724   -0.4125    0.0000 C   0  0  0  0  0  0  0  0  0  0  0  0
    3.5724   -1.2375    0.0000 C   0  0  0  0  0  0  0  0  0  0  0  0
    2.8579   -1.6500    0.0000 C   0  0  0  0  0  0  0  0  0  0  0  0
    2.8579   -2.4750    0.0000 O   0  0  0  0  0  0  0  0  0  0  0  0
    2.1434   -1.2375    0.0000 C   0  0  0  0  0  0  0  0  0  0  0  0
    1.4289   -1.6500    0.0000 C   0  0  0  0  0  0  0  0  0  0  0  0
    1.4289   -2.4750    0.0000 O   0  0  0  0  0  0  0  0  0  0  0  0
    4.2868   -0.0000    0.0000 C   0  0  0  0  0  0  0  0  0  0  0  0
    4.2868    0.8250    0.0000 C   0  0  0  0  0  0  0  0  0  0  0  0
    5.0013    1.2375    0.0000 C   0  0  0  0  0  0  0  0  0  0  0  0
    5.7158    0.8250    0.0000 C   0  0  0  0  0  0  0  0  0  0  0  0
    5.7158   -0.0000    0.0000 C   0  0  0  0  0  0  0  0  0  0  0  0
    5.0013   -0.4125    0.0000 C   0  0  0  0  0  0  0  0  0  0  0  0
  1  2  1  0  0  0  0
  2  3  2  0  0  0  0
  2  4  1  0  0  0  0
  4  5  1  0  0  0  0
  5  6  2  0  0  0  0
  5 16  1  0  0  0  0
  6  7  1  0  0  0  0
  6  8  1  0  0  0  0
  8  9  2  0  0  0  0
  9 10  1  0  0  0  0
  9 15  1  0  0  0  0
 10 11  1  0  0  0  0
 11 12  2  0  0  0  0
 11 18  1  0  0  0  0
 12 13  1  0  0  0  0
 13 14  2  0  0  0  0
 13 15  1  0  0  0  0
 15 16  2  0  0  0  0
 16 17  1  0  0  0  0
 18 19  2  0  0  0  0
 18 23  1  0  0  0  0
 19 20  1  0  0  0  0
 20 21  2  0  0  0  0
 21 22  1  0  0  0  0
 22 23  2  0  0  0  0
M  END
$$$$

 OpenBabel12191814062D

 32 35  0  0  0  0  0  0  0  0999 V2000
   -0.7145   -0.4125    0.0000 C   0  0  0  0  0  0  0  0  0  0  0  0
   -0.7145   -1.2375    0.0000 C   0  0  0  0  0  0  0  0  0  0  0  0
   -1.4289   -1.6500    0.0000 O   0  0  0  0  0  0  0  0  0  0  0  0
    0.0000   -1.6500    0.0000 O   0  0  0  0  0  0  0  0  0  0  0  0
    0.7145   -1.2375    0.0000 C   0  0  0  0  0  0  0  0  0  0  0  0
    0.7145   -0.4125    0.0000 C   0  0  0  0  0  0  0  0  0  0  0  0
    0.0000    0.0000    0.0000 O   0  0  0  0  0  0  0  0  0  0  0  0
    0.0000    0.8250    0.0000 C   0  0  0  0  0  0  0  0  0  0  0  0
   -0.7145    1.2375    0.0000 C   0  0  0  0  0  0  0  0  0  0  0  0
   -0.7145    2.0625    0.0000 C   0  0  0  0  0  0  0  0  0  0  0  0
    0.0000    2.4750    0.0000 C   0  0  0  0  0  0  0  0  0  0  0  0
    0.7145    2.0625    0.0000 C   0  0  0  0  0  0  0  0  0  0  0  0
    0.7145    1.2375    0.0000 C   0  0  0  0  0  0  0  0  0  0  0  0
    1.4289    0.0000    0.0000 C   0  0  0  0  0  0  0  0  0  0  0  0
    2.1434   -0.4125    0.0000 C   0  0  0  0  0  0  0  0  0  0  0  0
    2.8579    0.0000    0.0000 O   0  0  0  0  0  0  0  0  0  0  0  0
    3.5724   -0.4125    0.0000 C   0  0  0  0  0  0  0  0  0  0  0  0
    3.5724   -1.2375    0.0000 C   0  0  0  0  0  0  0  0  0  0  0  0
    2.8579   -1.6500    0.0000 C   0  0  0  0  0  0  0  0  0  0  0  0
    2.8579   -2.4750    0.0000 O   0  0  0  0  0  0  0  0  0  0  0  0
    2.1434   -1.2375    0.0000 C   0  0  0  0  0  0  0  0  0  0  0  0
    1.4289   -1.6500    0.0000 C   0  0  0  0  0  0  0  0  0  0  0  0
    1.4289   -2.4750    0.0000 O   0  0  0  0  0  0  0  0  0  0  0  0
    0.7145   -2.8875    0.0000 C   0  0  0  0  0  0  0  0  0  0  0  0
    0.0000   -2.4750    0.0000 C   0  0  0  0  0  0  0  0  0  0  0  0
    0.7145   -3.7125    0.0000 O   0  0  0  0  0  0  0  0  0  0  0  0
    4.2868   -0.0000    0.0000 C   0  0  0  0  0  0  0  0  0  0  0  0
    4.2868    0.8250    0.0000 C   0  0  0  0  0  0  0  0  0  0  0  0
    5.0013    1.2375    0.0000 C   0  0  0  0  0  0  0  0  0  0  0  0
    5.7158    0.8250    0.0000 C   0  0  0  0  0  0  0  0  0  0  0  0
    5.7158   -0.0000    0.0000 C   0  0  0  0  0  0  0  0  0  0  0  0
    5.0013   -0.4125    0.0000 C   0  0  0  0  0  0  0  0  0  0  0  0
  1  2  1  0  0  0  0
  2  3  2  0  0  0  0
  2  4  1  0  0  0  0
  4  5  1  0  0  0  0
  5  6  2  0  0  0  0
  5 22  1  0  0  0  0
  6  7  1  0  0  0  0
  6 14  1  0  0  0  0
  7  8  1  0  0  0  0
  8  9  2  0  0  0  0
  8 13  1  0  0  0  0
  9 10  1  0  0  0  0
 10 11  2  0  0  0  0
 11 12  1  0  0  0  0
 12 13  2  0  0  0  0
 14 15  2  0  0  0  0
 15 16  1  0  0  0  0
 15 21  1  0  0  0  0
 16 17  1  0  0  0  0
 17 18  2  0  0  0  0
 17 27  1  0  0  0  0
 18 19  1  0  0  0  0
 19 20  2  0  0  0  0
 19 21  1  0  0  0  0
 21 22  2  0  0  0  0
 22 23  1  0  0  0  0
 23 24  1  0  0  0  0
 24 25  1  0  0  0  0
 24 26  2  0  0  0  0
 27 28  2  0  0  0  0
 27 32  1  0  0  0  0
 28 29  1  0  0  0  0
 29 30  2  0  0  0  0
 30 31  1  0  0  0  0
 31 32  2  0  0  0  0
M  END
$$$$

 OpenBabel12191814062D

 33 36  0  0  0  0  0  0  0  0999 V2000
   -0.7145   -0.4125    0.0000 C   0  0  0  0  0  0  0  0  0  0  0  0
   -0.7145   -1.2375    0.0000 C   0  0  0  0  0  0  0  0  0  0  0  0
   -1.4289   -1.6500    0.0000 O   0  0  0  0  0  0  0  0  0  0  0  0
    0.0000   -1.6500    0.0000 O   0  0  0  0  0  0  0  0  0  0  0  0
    0.7145   -1.2375    0.0000 C   0  0  0  0  0  0  0  0  0  0  0  0
    0.7145   -0.4125    0.0000 C   0  0  0  0  0  0  0  0  0  0  0  0
    0.0000    0.0000    0.0000 O   0  0  0  0  0  0  0  0  0  0  0  0
    0.0000    0.8250    0.0000 C   0  0  0  0  0  0  0  0  0  0  0  0
    0.7145    1.2375    0.0000 C   0  0  0  0  0  0  0  0  0  0  0  0
    0.7145    2.0625    0.0000 C   0  0  0  0  0  0  0  0  0  0  0  0
    1.4289    2.4750    0.0000 C   0  0  0  0  0  0  0  0  0  0  0  0
    2.1434    2.0625    0.0000 C   0  0  0  0  0  0  0  0  0  0  0  0
    2.1434    1.2375    0.0000 C   0  0  0  0  0  0  0  0  0  0  0  0
    1.4289    0.8250    0.0000 C   0  0  0  0  0  0  0  0  0  0  0  0
    1.4289    0.0000    0.0000 C   0  0  0  0  0  0  0  0  0  0  0  0
    2.1434   -0.4125    0.0000 C   0  0  0  0  0  0  0  0  0  0  0  0
    2.8579    0.0000    0.0000 O   0  0  0  0  0  0  0  0  0  0  0  0
    3.5724   -0.4125    0.0000 C   0  0  0  0  0  0  0  0  0  0  0  0
    3.5724   -1.2375    0.0000 C   0  0  0  0  0  0  0  0  0  0  0  0
    2.8579   -1.6500    0.0000 C   0  0  0  0  0  0  0  0  0  0  0  0
    2.8579   -2.4750    0.0000 O   0  0  0  0  0  0  0  0  0  0  0  0
    2.1434   -1.2375    0.0000 C   0  0  0  0  0  0  0  0  0  0  0  0
    1.4289   -1.6500    0.0000 C   0  0  0  0  0  0  0  0  0  0  0  0
    1.4289   -2.4750    0.0000 O   0  0  0  0  0  0  0  0  0  0  0  0
    0.7145   -2.8875    0.0000 C   0  0  0  0  0  0  0  0  0  0  0  0
    0.0000   -2.4750    0.0000 C   0  0  0  0  0  0  0  0  0  0  0  0
    0.7145   -3.7125    0.0000 O   0  0  0  0  0  0  0  0  0  0  0  0
    4.2868   -0.0000    0.0000 C   0  0  0  0  0  0  0  0  0  0  0  0
    4.2868    0.8250    0.0000 C   0  0  0  0  0  0  0  0  0  0  0  0
    5.0013    1.2375    0.0000 C   0  0  0  0  0  0  0  0  0  0  0  0
    5.7158    0.8250    0.0000 C   0  0  0  0  0  0  0  0  0  0  0  0
    5.7158   -0.0000    0.0000 C   0  0  0  0  0  0  0  0  0  0  0  0
    5.0013   -0.4125    0.0000 C   0  0  0  0  0  0  0  0  0  0  0  0
  1  2  1  0  0  0  0
  2  3  2  0  0  0  0
  2  4  1  0  0  0  0
  4  5  1  0  0  0  0
  5  6  2  0  0  0  0
  5 23  1  0  0  0  0
  6  7  1  0  0  0  0
  6 15  1  0  0  0  0
  7  8  1  0  0  0  0
  8  9  1  0  0  0  0
  9 10  2  0  0  0  0
  9 14  1  0  0  0  0
 10 11  1  0  0  0  0
 11 12  2  0  0  0  0
 12 13  1  0  0  0  0
 13 14  2  0  0  0  0
 15 16  2  0  0  0  0
 16 17  1  0  0  0  0
 16 22  1  0  0  0  0
 17 18  1  0  0  0  0
 18 19  2  0  0  0  0
 18 28  1  0  0  0  0
 19 20  1  0  0  0  0
 20 21  2  0  0  0  0
 20 22  1  0  0  0  0
 22 23  2  0  0  0  0
 23 24  1  0  0  0  0
 24 25  1  0  0  0  0
 25 26  1  0  0  0  0
 25 27  2  0  0  0  0
 28 29  2  0  0  0  0
 28 33  1  0  0  0  0
 29 30  1  0  0  0  0
 30 31  2  0  0  0  0
 31 32  1  0  0  0  0
 32 33  2  0  0  0  0
M  END
$$$$

 OpenBabel12191814062D

 49 54  0  0  0  0  0  0  0  0999 V2000
    0.8527    2.2179    0.0000 C   0  0  0  0  0  0  0  0  0  0  0  0
    0.6329    1.4215    0.0000 C   0  0  0  0  0  0  0  0  0  0  0  0
   -0.1169    1.9047    0.0000 O   0  0  0  0  0  0  0  0  0  0  0  0
    1.1965    0.5820    0.0000 O   0  0  0  0  0  0  0  0  0  0  0  0
    1.0239   -0.2540    0.0000 C   0  0  3  0  0  0  0  0  0  0  0  0
    0.3646    0.0846    0.0000 C   0  0  3  0  0  0  0  0  0  0  0  0
    0.7712    0.8510    0.0000 C   0  0  3  0  0  0  0  0  0  0  0  0
   -0.1322    0.8936    0.0000 O   0  0  0  0  0  0  0  0  0  0  0  0
    1.6255    0.8903    0.0000 C   0  0  3  0  0  0  0  0  0  0  0  0
    1.5241    1.8424    0.0000 O   0  0  0  0  0  0  0  0  0  0  0  0
    1.2613    2.8152    0.0000 C   0  0  0  0  0  0  0  0  0  0  0  0
    0.5292    3.3172    0.0000 O   0  0  0  0  0  0  0  0  0  0  0  0
    2.0063    3.2863    0.0000 C   0  0  0  0  0  0  0  0  0  0  0  0
    1.7103    4.0564    0.0000 C   0  0  0  0  0  0  0  0  0  0  0  0
    2.2293    4.6977    0.0000 C   0  0  0  0  0  0  0  0  0  0  0  0
    3.0442    4.5690    0.0000 C   0  0  0  0  0  0  0  0  0  0  0  0
    3.3401    3.7989    0.0000 C   0  0  0  0  0  0  0  0  0  0  0  0
    2.8212    3.1575    0.0000 C   0  0  0  0  0  0  0  0  0  0  0  0
    2.0419    0.1273    0.0000 C   0  0  3  0  0  0  0  0  0  0  0  0
    2.7384    0.7298    0.0000 C   0  0  0  0  0  0  0  0  0  0  0  0
    2.8728    0.2005    0.0000 C   0  0  3  0  0  0  0  0  0  0  0  0
    3.6313    0.5441    0.0000 O   0  0  0  0  0  0  0  0  0  0  0  0
    4.3751    0.9938    0.0000 C   0  0  0  0  0  0  0  0  0  0  0  0
    5.1473    0.7557    0.0000 O   0  0  0  0  0  0  0  0  0  0  0  0
    4.6528    1.7977    0.0000 C   0  0  0  0  0  0  0  0  0  0  0  0
    4.0842    2.3954    0.0000 C   0  0  0  0  0  0  0  0  0  0  0  0
    4.3176    3.1867    0.0000 C   0  0  0  0  0  0  0  0  0  0  0  0
    5.1195    3.3803    0.0000 C   0  0  0  0  0  0  0  0  0  0  0  0
    5.6881    2.7825    0.0000 C   0  0  0  0  0  0  0  0  0  0  0  0
    5.4548    1.9912    0.0000 C   0  0  0  0  0  0  0  0  0  0  0  0
    3.3470   -0.4784    0.0000 C   0  0  3  0  0  0  0  0  0  0  0  0
    3.0032   -1.2330    0.0000 C   0  0  0  0  0  0  0  0  0  0  0  0
    2.1725   -1.3095    0.0000 C   0  0  3  0  0  0  0  0  0  0  0  0
    2.3239   -2.1787    0.0000 C   0  0  0  0  0  0  0  0  0  0  0  0
    1.4175   -1.6784    0.0000 O   0  0  0  0  0  0  0  0  0  0  0  0
    1.6291   -0.6520    0.0000 C   0  0  3  0  0  0  0  0  0  0  0  0
    0.9217   -1.2071    0.0000 O   0  0  0  0  0  0  0  0  0  0  0  0
    0.1713   -0.7591    0.0000 C   0  0  0  0  0  0  0  0  0  0  0  0
   -0.4335   -1.4053    0.0000 C   0  0  0  0  0  0  0  0  0  0  0  0
   -0.6769   -0.5089    0.0000 C   0  0  0  0  0  0  0  0  0  0  0  0
    4.0631   -1.0432    0.0000 O   0  0  0  0  0  0  0  0  0  0  0  0
    4.8787   -1.3970    0.0000 C   0  0  0  0  0  0  0  0  0  0  0  0
    4.8041   -2.2587    0.0000 O   0  0  0  0  0  0  0  0  0  0  0  0
    5.6472   -0.9233    0.0000 C   0  0  0  0  0  0  0  0  0  0  0  0
    5.8553   -0.1249    0.0000 C   0  0  0  0  0  0  0  0  0  0  0  0
    6.6507    0.0940    0.0000 C   0  0  0  0  0  0  0  0  0  0  0  0
    7.2380   -0.4854    0.0000 C   0  0  0  0  0  0  0  0  0  0  0  0
    7.0299   -1.2837    0.0000 C   0  0  0  0  0  0  0  0  0  0  0  0
    6.2345   -1.5026    0.0000 C   0  0  0  0  0  0  0  0  0  0  0  0
  1  2  1  0  0  0  0
  2  3  2  0  0  0  0
  2  4  1  0  0  0  0
  4  5  1  0  0  0  0
  5  6  1  0  0  0  0
  5 36  1  0  0  0  0
  6  7  1  0  0  0  0
  6 38  1  0  0  0  0
  7  8  1  0  0  0  0
  7  9  1  0  0  0  0
  9 10  1  0  0  0  0
  9 19  1  0  0  0  0
 10 11  1  0  0  0  0
 11 12  2  0  0  0  0
 11 13  1  0  0  0  0
 13 14  2  0  0  0  0
 13 18  1  0  0  0  0
 14 15  1  0  0  0  0
 15 16  2  0  0  0  0
 16 17  1  0  0  0  0
 17 18  2  0  0  0  0
 19 20  1  0  0  0  0
 19 21  1  0  0  0  0
 19 36  1  0  0  0  0
 21 22  1  0  0  0  0
 21 31  1  0  0  0  0
 22 23  1  0  0  0  0
 23 24  2  0  0  0  0
 23 25  1  0  0  0  0
 25 26  2  0  0  0  0
 25 30  1  0  0  0  0
 26 27  1  0  0  0  0
 27 28  2  0  0  0  0
 28 29  1  0  0  0  0
 29 30  2  0  0  0  0
 31 32  1  0  0  0  0
 31 41  1  0  0  0  0
 32 33  1  0  0  0  0
 33 34  1  0  0  0  0
 33 35  1  0  0  0  0
 33 36  1  0  0  0  0
 36 37  1  0  0  0  0
 37 38  1  0  0  0  0
 38 39  1  0  0  0  0
 38 40  1  0  0  0  0
 41 42  1  0  0  0  0
 42 43  2  0  0  0  0
 42 44  1  0  0  0  0
 44 45  2  0  0  0  0
 44 49  1  0  0  0  0
 45 46  1  0  0  0  0
 46 47  2  0  0  0  0
 47 48  1  0  0  0  0
 48 49  2  0  0  0  0
M  END
$$$$

 OpenBabel12191814062D

 52 57  0  0  0  0  0  0  0  0999 V2000
    0.3201    1.4746    0.0000 C   0  0  0  0  0  0  0  0  0  0  0  0
    1.1102    1.3532    0.0000 C   0  0  0  0  0  0  0  0  0  0  0  0
    1.1645    2.1609    0.0000 O   0  0  0  0  0  0  0  0  0  0  0  0
    1.2982    0.4860    0.0000 O   0  0  0  0  0  0  0  0  0  0  0  0
    1.0239   -0.2540    0.0000 C   0  0  3  0  0  0  0  0  0  0  0  0
    0.3646    0.0846    0.0000 C   0  0  3  0  0  0  0  0  0  0  0  0
    0.7712    0.8510    0.0000 C   0  0  3  0  0  0  0  0  0  0  0  0
   -0.1734    1.1112    0.0000 O   0  0  0  0  0  0  0  0  0  0  0  0
   -1.0441    1.4363    0.0000 C   0  0  0  0  0  0  0  0  0  0  0  0
   -1.6641    0.8472    0.0000 O   0  0  0  0  0  0  0  0  0  0  0  0
   -1.0363    2.3680    0.0000 C   0  0  0  0  0  0  0  0  0  0  0  0
   -1.8486    2.5122    0.0000 C   0  0  0  0  0  0  0  0  0  0  0  0
   -2.1299    3.2877    0.0000 C   0  0  0  0  0  0  0  0  0  0  0  0
   -1.5989    3.9191    0.0000 C   0  0  0  0  0  0  0  0  0  0  0  0
   -0.7866    3.7750    0.0000 C   0  0  0  0  0  0  0  0  0  0  0  0
   -0.5053    2.9994    0.0000 C   0  0  0  0  0  0  0  0  0  0  0  0
    1.6255    0.8903    0.0000 C   0  0  3  0  0  0  0  0  0  0  0  0
    1.7431    1.8044    0.0000 O   0  0  0  0  0  0  0  0  0  0  0  0
    1.4264    2.7225    0.0000 C   0  0  0  0  0  0  0  0  0  0  0  0
    1.0333    3.4760    0.0000 O   0  0  0  0  0  0  0  0  0  0  0  0
    2.0257    3.2763    0.0000 C   0  0  0  0  0  0  0  0  0  0  0  0
    1.7277    4.0456    0.0000 C   0  0  0  0  0  0  0  0  0  0  0  0
    2.2450    4.6883    0.0000 C   0  0  0  0  0  0  0  0  0  0  0  0
    3.0602    4.5617    0.0000 C   0  0  0  0  0  0  0  0  0  0  0  0
    3.3582    3.7923    0.0000 C   0  0  0  0  0  0  0  0  0  0  0  0
    2.8409    3.1497    0.0000 C   0  0  0  0  0  0  0  0  0  0  0  0
    2.0419    0.1273    0.0000 C   0  0  3  0  0  0  0  0  0  0  0  0
    2.6809    0.7363    0.0000 C   0  0  0  0  0  0  0  0  0  0  0  0
    2.8728    0.2005    0.0000 C   0  0  3  0  0  0  0  0  0  0  0  0
    3.8547    0.3742    0.0000 O   0  0  0  0  0  0  0  0  0  0  0  0
    4.6704    0.8939    0.0000 C   0  0  0  0  0  0  0  0  0  0  0  0
    5.5030    0.6989    0.0000 O   0  0  0  0  0  0  0  0  0  0  0  0
    4.5662    1.8444    0.0000 C   0  0  0  0  0  0  0  0  0  0  0  0
    3.9081    2.3419    0.0000 C   0  0  0  0  0  0  0  0  0  0  0  0
    4.0099    3.1606    0.0000 C   0  0  0  0  0  0  0  0  0  0  0  0
    4.7698    3.4818    0.0000 C   0  0  0  0  0  0  0  0  0  0  0  0
    5.4279    2.9842    0.0000 C   0  0  0  0  0  0  0  0  0  0  0  0
    5.3261    2.1656    0.0000 C   0  0  0  0  0  0  0  0  0  0  0  0
    3.3470   -0.4784    0.0000 C   0  0  3  0  0  0  0  0  0  0  0  0
    3.0032   -1.2330    0.0000 C   0  0  0  0  0  0  0  0  0  0  0  0
    2.1725   -1.3095    0.0000 C   0  0  3  0  0  0  0  0  0  0  0  0
    2.5000   -2.1395    0.0000 C   0  0  0  0  0  0  0  0  0  0  0  0
    1.6706   -2.0423    0.0000 O   0  0  0  0  0  0  0  0  0  0  0  0
    1.6291   -0.6520    0.0000 C   0  0  3  0  0  0  0  0  0  0  0  0
    0.9217   -1.2071    0.0000 O   0  0  0  0  0  0  0  0  0  0  0  0
    0.1713   -0.7591    0.0000 C   0  0  0  0  0  0  0  0  0  0  0  0
   -0.3955   -1.4332    0.0000 C   0  0  0  0  0  0  0  0  0  0  0  0
   -0.6821   -0.5712    0.0000 C   0  0  0  0  0  0  0  0  0  0  0  0
    4.1678   -0.8807    0.0000 O   0  0  0  0  0  0  0  0  0  0  0  0
    4.8855   -1.4136    0.0000 C   0  0  0  0  0  0  0  0  0  0  0  0
    5.7481   -1.3266    0.0000 C   0  0  0  0  0  0  0  0  0  0  0  0
    4.8935   -2.2631    0.0000 O   0  0  0  0  0  0  0  0  0  0  0  0
  1  2  1  0  0  0  0
  2  3  2  0  0  0  0
  2  4  1  0  0  0  0
  4  5  1  0  0  0  0
  5  6  1  0  0  0  0
  5 44  1  0  0  0  0
  6  7  1  0  0  0  0
  6 46  1  0  0  0  0
  7  8  1  0  0  0  0
  7 17  1  0  0  0  0
  8  9  1  0  0  0  0
  9 10  2  0  0  0  0
  9 11  1  0  0  0  0
 11 12  2  0  0  0  0
 11 16  1  0  0  0  0
 12 13  1  0  0  0  0
 13 14  2  0  0  0  0
 14 15  1  0  0  0  0
 15 16  2  0  0  0  0
 17 18  1  0  0  0  0
 17 27  1  0  0  0  0
 18 19  1  0  0  0  0
 19 20  2  0  0  0  0
 19 21  1  0  0  0  0
 21 22  2  0  0  0  0
 21 26  1  0  0  0  0
 22 23  1  0  0  0  0
 23 24  2  0  0  0  0
 24 25  1  0  0  0  0
 25 26  2  0  0  0  0
 27 28  1  0  0  0  0
 27 29  1  0  0  0  0
 27 44  1  0  0  0  0
 29 30  1  0  0  0  0
 29 39  1  0  0  0  0
 30 31  1  0  0  0  0
 31 32  2  0  0  0  0
 31 33  1  0  0  0  0
 33 34  2  0  0  0  0
 33 38  1  0  0  0  0
 34 35  1  0  0  0  0
 35 36  2  0  0  0  0
 36 37  1  0  0  0  0
 37 38  2  0  0  0  0
 39 40  1  0  0  0  0
 39 49  1  0  0  0  0
 40 41  1  0  0  0  0
 41 42  1  0  0  0  0
 41 43  1  0  0  0  0
 41 44  1  0  0  0  0
 44 45  1  0  0  0  0
 45 46  1  0  0  0  0
 46 47  1  0  0  0  0
 46 48  1  0  0  0  0
 49 50  1  0  0  0  0
 50 51  1  0  0  0  0
 50 52  2  0  0  0  0
M  END
$$$$

 OpenBabel12191814062D

 63 69  0  0  0  0  0  0  0  0999 V2000
   -2.4801   -0.7103    0.0000 C   0  0  0  0  0  0  0  0  0  0  0  0
   -1.7663   -0.2967    0.0000 C   0  0  0  0  0  0  0  0  0  0  0  0
   -1.7675    0.5283    0.0000 O   0  0  0  0  0  0  0  0  0  0  0  0
   -1.0512   -0.7081    0.0000 O   0  0  0  0  0  0  0  0  0  0  0  0
   -0.3373   -0.2945    0.0000 C   0  0  3  0  0  0  0  0  0  0  0  0
    0.4275   -0.6804    0.0000 C   0  0  0  0  0  0  0  0  0  0  0  0
    1.2069   -0.2662    0.0000 C   0  0  3  0  0  0  0  0  0  0  0  0
    1.4741   -1.0467    0.0000 O   0  0  0  0  0  0  0  0  0  0  0  0
    2.0716   -0.1168    0.0000 C   0  0  3  0  0  0  0  0  0  0  0  0
    2.4801   -0.8335    0.0000 O   0  0  0  0  0  0  0  0  0  0  0  0
    2.0637   -1.5457    0.0000 C   0  0  0  0  0  0  0  0  0  0  0  0
    1.2387   -1.5412    0.0000 O   0  0  0  0  0  0  0  0  0  0  0  0
    2.4723   -2.2625    0.0000 C   0  0  0  0  0  0  0  0  0  0  0  0
    3.2972   -2.2670    0.0000 C   0  0  0  0  0  0  0  0  0  0  0  0
    3.7058   -2.9838    0.0000 C   0  0  0  0  0  0  0  0  0  0  0  0
    3.2894   -3.6959    0.0000 C   0  0  0  0  0  0  0  0  0  0  0  0
    2.4644   -3.6914    0.0000 C   0  0  0  0  0  0  0  0  0  0  0  0
    2.0558   -2.9747    0.0000 C   0  0  0  0  0  0  0  0  0  0  0  0
    2.6300    0.5385    0.0000 C   0  0  3  0  0  0  0  0  0  0  0  0
    3.3873    0.2114    0.0000 C   0  0  3  0  0  0  0  0  0  0  0  0
    3.8797   -0.4506    0.0000 C   0  0  0  0  0  0  0  0  0  0  0  0
    4.5417    0.0417    0.0000 O   0  0  0  0  0  0  0  0  0  0  0  0
    4.0493    0.7037    0.0000 C   0  0  3  0  0  0  0  0  0  0  0  0
    3.9540    1.5231    0.0000 C   0  0  0  0  0  0  0  0  0  0  0  0
    3.1966    1.8503    0.0000 C   0  0  3  0  0  0  0  0  0  0  0  0
    3.1013    2.6698    0.0000 O   0  0  0  0  0  0  0  0  0  0  0  0
    3.7633    3.1621    0.0000 C   0  0  0  0  0  0  0  0  0  0  0  0
    3.6679    3.9816    0.0000 O   0  0  0  0  0  0  0  0  0  0  0  0
    4.5206    2.8349    0.0000 C   0  0  0  0  0  0  0  0  0  0  0  0
    5.1826    3.3272    0.0000 C   0  0  0  0  0  0  0  0  0  0  0  0
    5.9400    3.0001    0.0000 C   0  0  0  0  0  0  0  0  0  0  0  0
    6.6020    3.4924    0.0000 C   0  0  0  0  0  0  0  0  0  0  0  0
    7.3594    3.1653    0.0000 C   0  0  0  0  0  0  0  0  0  0  0  0
    7.4547    2.3458    0.0000 C   0  0  0  0  0  0  0  0  0  0  0  0
    6.7927    1.8535    0.0000 C   0  0  0  0  0  0  0  0  0  0  0  0
    6.0354    2.1806    0.0000 C   0  0  0  0  0  0  0  0  0  0  0  0
    8.2121    2.0186    0.0000 C   0  0  0  0  0  0  0  0  0  0  0  0
    8.8741    2.5110    0.0000 O   0  0  0  0  0  0  0  0  0  0  0  0
    8.3074    1.1992    0.0000 C   0  0  0  0  0  0  0  0  0  0  0  0
    9.0648    0.8720    0.0000 C   0  0  0  0  0  0  0  0  0  0  0  0
    9.1602    0.0525    0.0000 C   0  0  0  0  0  0  0  0  0  0  0  0
    8.4982   -0.4398    0.0000 C   0  0  0  0  0  0  0  0  0  0  0  0
    7.7408   -0.1126    0.0000 C   0  0  0  0  0  0  0  0  0  0  0  0
    7.6454    0.7068    0.0000 C   0  0  0  0  0  0  0  0  0  0  0  0
    2.5346    1.3580    0.0000 C   0  0  3  0  0  0  0  0  0  0  0  0
    2.5372    2.1830    0.0000 C   0  0  0  0  0  0  0  0  0  0  0  0
    1.8611    1.8655    0.0000 C   0  0  0  0  0  0  0  0  0  0  0  0
    2.0494    2.6687    0.0000 O   0  0  0  0  0  0  0  0  0  0  0  0
    1.0149    1.7070    0.0000 C   0  0  3  0  0  0  0  0  0  0  0  0
    0.5962    2.4179    0.0000 O   0  0  0  0  0  0  0  0  0  0  0  0
   -0.2287    2.4108    0.0000 C   0  0  0  0  0  0  0  0  0  0  0  0
   -0.6351    1.6928    0.0000 C   0  0  0  0  0  0  0  0  0  0  0  0
   -0.6474    3.1216    0.0000 O   0  0  0  0  0  0  0  0  0  0  0  0
    0.4552    1.0311    0.0000 C   0  0  0  0  0  0  0  0  0  0  0  0
   -0.2918    0.5609    0.0000 C   0  0  0  0  0  0  0  0  0  0  0  0
   -1.0031    0.9787    0.0000 C   0  0  0  0  0  0  0  0  0  0  0  0
    0.8757    0.4083    0.0000 C   0  0  0  0  0  0  0  0  0  0  0  0
    1.3835    1.0585    0.0000 C   0  0  0  0  0  0  0  0  0  0  0  0
    1.6923    0.5255    0.0000 C   0  0  0  0  0  0  0  0  0  0  0  0
    2.8753   -0.4355    0.0000 O   0  0  0  0  0  0  0  0  0  0  0  0
    3.1795   -1.2024    0.0000 C   0  0  0  0  0  0  0  0  0  0  0  0
    3.9957   -1.3224    0.0000 C   0  0  0  0  0  0  0  0  0  0  0  0
    2.6675   -1.8493    0.0000 O   0  0  0  0  0  0  0  0  0  0  0  0
  1  2  1  0  0  0  0
  2  3  2  0  0  0  0
  2  4  1  0  0  0  0
  4  5  1  0  0  0  0
  5  6  1  0  0  0  0
  5 55  1  0  0  0  0
  6  7  1  0  0  0  0
  7  8  1  0  0  0  0
  7  9  1  0  0  0  0
  7 57  1  0  0  0  0
  9 10  1  0  0  0  0
  9 19  1  0  0  0  0
 10 11  1  0  0  0  0
 11 12  2  0  0  0  0
 11 13  1  0  0  0  0
 13 14  2  0  0  0  0
 13 18  1  0  0  0  0
 14 15  1  0  0  0  0
 15 16  2  0  0  0  0
 16 17  1  0  0  0  0
 17 18  2  0  0  0  0
 19 20  1  0  0  0  0
 19 45  1  0  0  0  0
 20 21  1  0  0  0  0
 20 23  1  0  0  0  0
 20 60  1  0  0  0  0
 21 22  1  0  0  0  0
 22 23  1  0  0  0  0
 23 24  1  0  0  0  0
 24 25  1  0  0  0  0
 25 26  1  0  0  0  0
 25 45  1  0  0  0  0
 26 27  1  0  0  0  0
 27 28  2  0  0  0  0
 27 29  1  0  0  0  0
 29 30  2  0  0  0  0
 30 31  1  0  0  0  0
 31 32  2  0  0  0  0
 31 36  1  0  0  0  0
 32 33  1  0  0  0  0
 33 34  2  0  0  0  0
 34 35  1  0  0  0  0
 34 37  1  0  0  0  0
 35 36  2  0  0  0  0
 37 38  2  0  0  0  0
 37 39  1  0  0  0  0
 39 40  2  0  0  0  0
 39 44  1  0  0  0  0
 40 41  1  0  0  0  0
 41 42  2  0  0  0  0
 42 43  1  0  0  0  0
 43 44  2  0  0  0  0
 45 46  1  0  0  0  0
 45 47  1  0  0  0  0
 47 48  2  0  0  0  0
 47 49  1  0  0  0  0
 49 50  1  0  0  0  0
 49 54  1  0  0  0  0
 50 51  1  0  0  0  0
 51 52  1  0  0  0  0
 51 53  2  0  0  0  0
 54 55  2  0  0  0  0
 54 57  1  0  0  0  0
 55 56  1  0  0  0  0
 57 58  1  0  0  0  0
 57 59  1  0  0  0  0
 60 61  1  0  0  0  0
 61 62  1  0  0  0  0
 61 63  2  0  0  0  0
M  END
$$$$

 OpenBabel12191814062D

 26 28  0  0  0  0  0  0  0  0999 V2000
    0.7145    1.2375    0.0000 C   0  0  0  0  0  0  0  0  0  0  0  0
    0.0000    0.8250    0.0000 C   0  0  0  0  0  0  0  0  0  0  0  0
   -0.7145    1.2375    0.0000 O   0  0  0  0  0  0  0  0  0  0  0  0
    0.0000    0.0000    0.0000 O   0  0  0  0  0  0  0  0  0  0  0  0
    0.7145   -0.4125    0.0000 C   0  0  0  0  0  0  0  0  0  0  0  0
    1.4289    0.0000    0.0000 C   0  0  0  0  0  0  0  0  0  0  0  0
    2.1434   -0.4125    0.0000 C   0  0  0  0  0  0  0  0  0  0  0  0
    2.8579    0.0000    0.0000 O   0  0  0  0  0  0  0  0  0  0  0  0
    3.5724   -0.4125    0.0000 C   0  0  0  0  0  0  0  0  0  0  0  0
    3.5724   -1.2375    0.0000 C   0  0  0  0  0  0  0  0  0  0  0  0
    2.8579   -1.6500    0.0000 C   0  0  0  0  0  0  0  0  0  0  0  0
    2.8579   -2.4750    0.0000 O   0  0  0  0  0  0  0  0  0  0  0  0
    2.1434   -1.2375    0.0000 C   0  0  0  0  0  0  0  0  0  0  0  0
    1.4289   -1.6500    0.0000 C   0  0  0  0  0  0  0  0  0  0  0  0
    1.4289   -2.4750    0.0000 O   0  0  0  0  0  0  0  0  0  0  0  0
    0.7145   -1.2375    0.0000 C   0  0  0  0  0  0  0  0  0  0  0  0
    0.0000   -1.6500    0.0000 O   0  0  0  0  0  0  0  0  0  0  0  0
   -0.7145   -1.2375    0.0000 C   0  0  0  0  0  0  0  0  0  0  0  0
   -0.7145   -0.4125    0.0000 C   0  0  0  0  0  0  0  0  0  0  0  0
   -1.4289   -1.6500    0.0000 O   0  0  0  0  0  0  0  0  0  0  0  0
    4.2868   -0.0000    0.0000 C   0  0  0  0  0  0  0  0  0  0  0  0
    4.2868    0.8250    0.0000 C   0  0  0  0  0  0  0  0  0  0  0  0
    5.0013    1.2375    0.0000 C   0  0  0  0  0  0  0  0  0  0  0  0
    5.7158    0.8250    0.0000 C   0  0  0  0  0  0  0  0  0  0  0  0
    5.7158   -0.0000    0.0000 C   0  0  0  0  0  0  0  0  0  0  0  0
    5.0013   -0.4125    0.0000 C   0  0  0  0  0  0  0  0  0  0  0  0
  1  2  1  0  0  0  0
  2  3  2  0  0  0  0
  2  4  1  0  0  0  0
  4  5  1  0  0  0  0
  5  6  2  0  0  0  0
  5 16  1  0  0  0  0
  6  7  1  0  0  0  0
  7  8  1  0  0  0  0
  7 13  2  0  0  0  0
  8  9  1  0  0  0  0
  9 10  2  0  0  0  0
  9 21  1  0  0  0  0
 10 11  1  0  0  0  0
 11 12  2  0  0  0  0
 11 13  1  0  0  0  0
 13 14  1  0  0  0  0
 14 15  1  0  0  0  0
 14 16  2  0  0  0  0
 16 17  1  0  0  0  0
 17 18  1  0  0  0  0
 18 19  1  0  0  0  0
 18 20  2  0  0  0  0
 21 22  2  0  0  0  0
 21 26  1  0  0  0  0
 22 23  1  0  0  0  0
 23 24  2  0  0  0  0
 24 25  1  0  0  0  0
 25 26  2  0  0  0  0
M  END
$$$$

 OpenBabel12191814062D

 30 33  0  0  0  0  0  0  0  0999 V2000
   -0.7145    1.2375    0.0000 C   0  0  0  0  0  0  0  0  0  0  0  0
    0.0000    0.8250    0.0000 C   0  0  0  0  0  0  0  0  0  0  0  0
    0.7145    1.2375    0.0000 O   0  0  0  0  0  0  0  0  0  0  0  0
    0.0000    0.0000    0.0000 O   0  0  0  0  0  0  0  0  0  0  0  0
    0.7145   -0.4125    0.0000 C   0  0  0  0  0  0  0  0  0  0  0  0
    1.4289    0.0000    0.0000 C   0  0  0  0  0  0  0  0  0  0  0  0
    2.1434   -0.4125    0.0000 C   0  0  0  0  0  0  0  0  0  0  0  0
    2.8579    0.0000    0.0000 O   0  0  0  0  0  0  0  0  0  0  0  0
    3.5724   -0.4125    0.0000 C   0  0  0  0  0  0  0  0  0  0  0  0
    3.5724   -1.2375    0.0000 C   0  0  0  0  0  0  0  0  0  0  0  0
    2.8579   -1.6500    0.0000 C   0  0  0  0  0  0  0  0  0  0  0  0
    2.8579   -2.4750    0.0000 O   0  0  0  0  0  0  0  0  0  0  0  0
    2.1434   -1.2375    0.0000 C   0  0  0  0  0  0  0  0  0  0  0  0
    1.4289   -1.6500    0.0000 C   0  0  0  0  0  0  0  0  0  0  0  0
    1.4289   -2.4750    0.0000 O   0  0  0  0  0  0  0  0  0  0  0  0
    0.7145   -1.2375    0.0000 C   0  0  0  0  0  0  0  0  0  0  0  0
    0.0000   -1.6500    0.0000 O   0  0  0  0  0  0  0  0  0  0  0  0
   -0.7145   -1.2375    0.0000 C   0  0  0  0  0  0  0  0  0  0  0  0
   -1.4289   -1.6500    0.0000 C   0  0  0  0  0  0  0  0  0  0  0  0
   -1.4289   -2.4750    0.0000 C   0  0  0  0  0  0  0  0  0  0  0  0
   -2.1434   -2.8875    0.0000 C   0  0  0  0  0  0  0  0  0  0  0  0
   -2.8579   -2.4750    0.0000 C   0  0  0  0  0  0  0  0  0  0  0  0
   -2.8579   -1.6500    0.0000 C   0  0  0  0  0  0  0  0  0  0  0  0
   -2.1434   -1.2375    0.0000 C   0  0  0  0  0  0  0  0  0  0  0  0
    4.2868   -0.0000    0.0000 C   0  0  0  0  0  0  0  0  0  0  0  0
    4.2868    0.8250    0.0000 C   0  0  0  0  0  0  0  0  0  0  0  0
    5.0013    1.2375    0.0000 C   0  0  0  0  0  0  0  0  0  0  0  0
    5.7158    0.8250    0.0000 C   0  0  0  0  0  0  0  0  0  0  0  0
    5.7158   -0.0000    0.0000 C   0  0  0  0  0  0  0  0  0  0  0  0
    5.0013   -0.4125    0.0000 C   0  0  0  0  0  0  0  0  0  0  0  0
  1  2  1  0  0  0  0
  2  3  2  0  0  0  0
  2  4  1  0  0  0  0
  4  5  1  0  0  0  0
  5  6  2  0  0  0  0
  5 16  1  0  0  0  0
  6  7  1  0  0  0  0
  7  8  1  0  0  0  0
  7 13  2  0  0  0  0
  8  9  1  0  0  0  0
  9 10  2  0  0  0  0
  9 25  1  0  0  0  0
 10 11  1  0  0  0  0
 11 12  2  0  0  0  0
 11 13  1  0  0  0  0
 13 14  1  0  0  0  0
 14 15  1  0  0  0  0
 14 16  2  0  0  0  0
 16 17  1  0  0  0  0
 17 18  1  0  0  0  0
 18 19  1  0  0  0  0
 19 20  2  0  0  0  0
 19 24  1  0  0  0  0
 20 21  1  0  0  0  0
 21 22  2  0  0  0  0
 22 23  1  0  0  0  0
 23 24  2  0  0  0  0
 25 26  2  0  0  0  0
 25 30  1  0  0  0  0
 26 27  1  0  0  0  0
 27 28  2  0  0  0  0
 28 29  1  0  0  0  0
 29 30  2  0  0  0  0
M  END
$$$$

 OpenBabel12191814062D

 29 31  0  0  0  0  0  0  0  0999 V2000
    0.7145    1.2375    0.0000 C   0  0  0  0  0  0  0  0  0  0  0  0
    0.0000    0.8250    0.0000 C   0  0  0  0  0  0  0  0  0  0  0  0
   -0.7145    1.2375    0.0000 O   0  0  0  0  0  0  0  0  0  0  0  0
    0.0000    0.0000    0.0000 O   0  0  0  0  0  0  0  0  0  0  0  0
    0.7145   -0.4125    0.0000 C   0  0  0  0  0  0  0  0  0  0  0  0
    1.4289    0.0000    0.0000 C   0  0  0  0  0  0  0  0  0  0  0  0
    2.1434   -0.4125    0.0000 C   0  0  0  0  0  0  0  0  0  0  0  0
    2.8579    0.0000    0.0000 O   0  0  0  0  0  0  0  0  0  0  0  0
    3.5724   -0.4125    0.0000 C   0  0  0  0  0  0  0  0  0  0  0  0
    3.5724   -1.2375    0.0000 C   0  0  0  0  0  0  0  0  0  0  0  0
    2.8579   -1.6500    0.0000 C   0  0  0  0  0  0  0  0  0  0  0  0
    2.8579   -2.4750    0.0000 O   0  0  0  0  0  0  0  0  0  0  0  0
    2.1434   -1.2375    0.0000 C   0  0  0  0  0  0  0  0  0  0  0  0
    1.4289   -1.6500    0.0000 C   0  0  0  0  0  0  0  0  0  0  0  0
    1.4289   -2.4750    0.0000 O   0  0  0  0  0  0  0  0  0  0  0  0
    0.7145   -2.8875    0.0000 C   0  0  0  0  0  0  0  0  0  0  0  0
    0.7145   -3.7125    0.0000 C   0  0  0  0  0  0  0  0  0  0  0  0
    0.0000   -2.4750    0.0000 O   0  0  0  0  0  0  0  0  0  0  0  0
    0.7145   -1.2375    0.0000 C   0  0  0  0  0  0  0  0  0  0  0  0
    0.0000   -1.6500    0.0000 O   0  0  0  0  0  0  0  0  0  0  0  0
   -0.7145   -1.2375    0.0000 C   0  0  0  0  0  0  0  0  0  0  0  0
   -1.4289   -1.6500    0.0000 C   0  0  0  0  0  0  0  0  0  0  0  0
   -0.7145   -0.4125    0.0000 O   0  0  0  0  0  0  0  0  0  0  0  0
    4.2868   -0.0000    0.0000 C   0  0  0  0  0  0  0  0  0  0  0  0
    4.2868    0.8250    0.0000 C   0  0  0  0  0  0  0  0  0  0  0  0
    5.0013    1.2375    0.0000 C   0  0  0  0  0  0  0  0  0  0  0  0
    5.7158    0.8250    0.0000 C   0  0  0  0  0  0  0  0  0  0  0  0
    5.7158   -0.0000    0.0000 C   0  0  0  0  0  0  0  0  0  0  0  0
    5.0013   -0.4125    0.0000 C   0  0  0  0  0  0  0  0  0  0  0  0
  1  2  1  0  0  0  0
  2  3  2  0  0  0  0
  2  4  1  0  0  0  0
  4  5  1  0  0  0  0
  5  6  2  0  0  0  0
  5 19  1  0  0  0  0
  6  7  1  0  0  0  0
  7  8  1  0  0  0  0
  7 13  2  0  0  0  0
  8  9  1  0  0  0  0
  9 10  2  0  0  0  0
  9 24  1  0  0  0  0
 10 11  1  0  0  0  0
 11 12  2  0  0  0  0
 11 13  1  0  0  0  0
 13 14  1  0  0  0  0
 14 15  1  0  0  0  0
 14 19  2  0  0  0  0
 15 16  1  0  0  0  0
 16 17  1  0  0  0  0
 16 18  2  0  0  0  0
 19 20  1  0  0  0  0
 20 21  1  0  0  0  0
 21 22  1  0  0  0  0
 21 23  2  0  0  0  0
 24 25  2  0  0  0  0
 24 29  1  0  0  0  0
 25 26  1  0  0  0  0
 26 27  2  0  0  0  0
 27 28  1  0  0  0  0
 28 29  2  0  0  0  0
M  END
$$$$

 OpenBabel12191814062D

 33 36  0  0  0  0  0  0  0  0999 V2000
    0.7145    1.2375    0.0000 C   0  0  0  0  0  0  0  0  0  0  0  0
    0.0000    0.8250    0.0000 C   0  0  0  0  0  0  0  0  0  0  0  0
   -0.7145    1.2375    0.0000 O   0  0  0  0  0  0  0  0  0  0  0  0
    0.0000    0.0000    0.0000 O   0  0  0  0  0  0  0  0  0  0  0  0
    0.7145   -0.4125    0.0000 C   0  0  0  0  0  0  0  0  0  0  0  0
    1.4289    0.0000    0.0000 C   0  0  0  0  0  0  0  0  0  0  0  0
    2.1434   -0.4125    0.0000 C   0  0  0  0  0  0  0  0  0  0  0  0
    2.8579    0.0000    0.0000 O   0  0  0  0  0  0  0  0  0  0  0  0
    3.5724   -0.4125    0.0000 C   0  0  0  0  0  0  0  0  0  0  0  0
    3.5724   -1.2375    0.0000 C   0  0  0  0  0  0  0  0  0  0  0  0
    2.8579   -1.6500    0.0000 C   0  0  0  0  0  0  0  0  0  0  0  0
    2.8579   -2.4750    0.0000 O   0  0  0  0  0  0  0  0  0  0  0  0
    2.1434   -1.2375    0.0000 C   0  0  0  0  0  0  0  0  0  0  0  0
    1.4289   -1.6500    0.0000 C   0  0  0  0  0  0  0  0  0  0  0  0
    1.4289   -2.4750    0.0000 O   0  0  0  0  0  0  0  0  0  0  0  0
    2.1434   -2.8875    0.0000 C   0  0  0  0  0  0  0  0  0  0  0  0
    2.1434   -3.7125    0.0000 C   0  0  0  0  0  0  0  0  0  0  0  0
    2.8579   -4.1250    0.0000 C   0  0  0  0  0  0  0  0  0  0  0  0
    2.8579   -4.9500    0.0000 C   0  0  0  0  0  0  0  0  0  0  0  0
    2.1434   -5.3625    0.0000 C   0  0  0  0  0  0  0  0  0  0  0  0
    1.4289   -4.9500    0.0000 C   0  0  0  0  0  0  0  0  0  0  0  0
    1.4289   -4.1250    0.0000 C   0  0  0  0  0  0  0  0  0  0  0  0
    0.7145   -1.2375    0.0000 C   0  0  0  0  0  0  0  0  0  0  0  0
    0.0000   -1.6500    0.0000 O   0  0  0  0  0  0  0  0  0  0  0  0
    0.0000   -2.4750    0.0000 C   0  0  0  0  0  0  0  0  0  0  0  0
    0.7145   -2.8875    0.0000 C   0  0  0  0  0  0  0  0  0  0  0  0
   -0.7145   -2.8875    0.0000 O   0  0  0  0  0  0  0  0  0  0  0  0
    4.2868   -0.0000    0.0000 C   0  0  0  0  0  0  0  0  0  0  0  0
    4.2868    0.8250    0.0000 C   0  0  0  0  0  0  0  0  0  0  0  0
    5.0013    1.2375    0.0000 C   0  0  0  0  0  0  0  0  0  0  0  0
    5.7158    0.8250    0.0000 C   0  0  0  0  0  0  0  0  0  0  0  0
    5.7158   -0.0000    0.0000 C   0  0  0  0  0  0  0  0  0  0  0  0
    5.0013   -0.4125    0.0000 C   0  0  0  0  0  0  0  0  0  0  0  0
  1  2  1  0  0  0  0
  2  3  2  0  0  0  0
  2  4  1  0  0  0  0
  4  5  1  0  0  0  0
  5  6  2  0  0  0  0
  5 23  1  0  0  0  0
  6  7  1  0  0  0  0
  7  8  1  0  0  0  0
  7 13  2  0  0  0  0
  8  9  1  0  0  0  0
  9 10  2  0  0  0  0
  9 28  1  0  0  0  0
 10 11  1  0  0  0  0
 11 12  2  0  0  0  0
 11 13  1  0  0  0  0
 13 14  1  0  0  0  0
 14 15  1  0  0  0  0
 14 23  2  0  0  0  0
 15 16  1  0  0  0  0
 16 17  1  0  0  0  0
 17 18  2  0  0  0  0
 17 22  1  0  0  0  0
 18 19  1  0  0  0  0
 19 20  2  0  0  0  0
 20 21  1  0  0  0  0
 21 22  2  0  0  0  0
 23 24  1  0  0  0  0
 24 25  1  0  0  0  0
 25 26  1  0  0  0  0
 25 27  2  0  0  0  0
 28 29  2  0  0  0  0
 28 33  1  0  0  0  0
 29 30  1  0  0  0  0
 30 31  2  0  0  0  0
 31 32  1  0  0  0  0
 32 33  2  0  0  0  0
M  END
$$$$

 OpenBabel12191814062D

 53 58  0  0  0  0  0  0  0  0999 V2000
    3.7574    2.4761    0.0000 C   0  0  0  0  0  0  0  0  0  0  0  0
    2.9973    2.2724    0.0000 C   0  0  0  0  0  0  0  0  0  0  0  0
    2.8622    1.3747    0.0000 O   0  0  0  0  0  0  0  0  0  0  0  0
    2.2518    2.7543    0.0000 O   0  0  0  0  0  0  0  0  0  0  0  0
    1.6013    2.2145    0.0000 C   0  0  0  0  0  0  0  0  0  0  0  0
    0.9881    1.5419    0.0000 C   0  0  3  0  0  0  0  0  0  0  0  0
    1.8298    1.5673    0.0000 C   0  0  3  0  0  0  0  0  0  0  0  0
    2.5320    2.0071    0.0000 O   0  0  0  0  0  0  0  0  0  0  0  0
    2.8139    2.8977    0.0000 C   0  0  0  0  0  0  0  0  0  0  0  0
    2.0986    3.4314    0.0000 O   0  0  0  0  0  0  0  0  0  0  0  0
    3.5989    3.2005    0.0000 C   0  0  0  0  0  0  0  0  0  0  0  0
    3.7181    4.0168    0.0000 C   0  0  0  0  0  0  0  0  0  0  0  0
    4.4846    4.3218    0.0000 C   0  0  0  0  0  0  0  0  0  0  0  0
    5.1320    3.8104    0.0000 C   0  0  0  0  0  0  0  0  0  0  0  0
    5.0128    2.9940    0.0000 C   0  0  0  0  0  0  0  0  0  0  0  0
    4.2463    2.6891    0.0000 C   0  0  0  0  0  0  0  0  0  0  0  0
    2.2792    0.8674    0.0000 C   0  0  3  0  0  0  0  0  0  0  0  0
    1.9060    0.1250    0.0000 C   0  0  0  0  0  0  0  0  0  0  0  0
    1.0812    0.0746    0.0000 C   0  0  3  0  0  0  0  0  0  0  0  0
    1.3458   -0.7692    0.0000 C   0  0  0  0  0  0  0  0  0  0  0  0
    0.5695   -0.6485    0.0000 O   0  0  0  0  0  0  0  0  0  0  0  0
    0.5808    0.7540    0.0000 C   0  0  3  0  0  0  0  0  0  0  0  0
   -0.1007    0.1726    0.0000 O   0  0  0  0  0  0  0  0  0  0  0  0
   -0.8607    0.5953    0.0000 C   0  0  0  0  0  0  0  0  0  0  0  0
   -1.4380   -0.0686    0.0000 C   0  0  0  0  0  0  0  0  0  0  0  0
   -1.7150    0.8009    0.0000 C   0  0  0  0  0  0  0  0  0  0  0  0
   -0.6954    1.4426    0.0000 C   0  0  3  0  0  0  0  0  0  0  0  0
   -0.0175    1.1439    0.0000 C   0  0  3  0  0  0  0  0  0  0  0  0
    0.0878    1.9627    0.0000 O   0  0  0  0  0  0  0  0  0  0  0  0
   -0.6041    2.7155    0.0000 C   0  0  0  0  0  0  0  0  0  0  0  0
   -0.4329    3.5183    0.0000 C   0  0  0  0  0  0  0  0  0  0  0  0
   -1.3838    3.1420    0.0000 O   0  0  0  0  0  0  0  0  0  0  0  0
   -0.3272    2.2252    0.0000 C   0  0  0  0  0  0  0  0  0  0  0  0
   -1.2333    2.1493    0.0000 O   0  0  0  0  0  0  0  0  0  0  0  0
    0.5304    2.2931    0.0000 C   0  0  3  0  0  0  0  0  0  0  0  0
    0.3118    3.2375    0.0000 O   0  0  0  0  0  0  0  0  0  0  0  0
   -0.1566    4.1299    0.0000 C   0  0  0  0  0  0  0  0  0  0  0  0
   -0.9373    4.4978    0.0000 O   0  0  0  0  0  0  0  0  0  0  0  0
    0.5230    4.6935    0.0000 C   0  0  0  0  0  0  0  0  0  0  0  0
    0.0951    5.3989    0.0000 C   0  0  0  0  0  0  0  0  0  0  0  0
    0.4920    6.1221    0.0000 C   0  0  0  0  0  0  0  0  0  0  0  0
    1.3168    6.1400    0.0000 C   0  0  0  0  0  0  0  0  0  0  0  0
    1.7447    5.4347    0.0000 C   0  0  0  0  0  0  0  0  0  0  0  0
    1.3478    4.7114    0.0000 C   0  0  0  0  0  0  0  0  0  0  0  0
    2.8860    0.1385    0.0000 O   0  0  0  0  0  0  0  0  0  0  0  0
    3.5286   -0.5287    0.0000 C   0  0  0  0  0  0  0  0  0  0  0  0
    3.3199   -1.3793    0.0000 O   0  0  0  0  0  0  0  0  0  0  0  0
    4.4072   -0.2331    0.0000 C   0  0  0  0  0  0  0  0  0  0  0  0
    4.8104    0.4867    0.0000 C   0  0  0  0  0  0  0  0  0  0  0  0
    5.6353    0.4974    0.0000 C   0  0  0  0  0  0  0  0  0  0  0  0
    6.0571   -0.2116    0.0000 C   0  0  0  0  0  0  0  0  0  0  0  0
    5.6540   -0.9314    0.0000 C   0  0  0  0  0  0  0  0  0  0  0  0
    4.8290   -0.9421    0.0000 C   0  0  0  0  0  0  0  0  0  0  0  0
  1  2  1  0  0  0  0
  2  3  2  0  0  0  0
  2  4  1  0  0  0  0
  4  5  1  0  0  0  0
  5  6  1  0  0  0  0
  6  7  1  0  0  0  0
  6 22  1  0  0  0  0
  6 35  1  0  0  0  0
  7  8  1  0  0  0  0
  7 17  1  0  0  0  0
  8  9  1  0  0  0  0
  9 10  2  0  0  0  0
  9 11  1  0  0  0  0
 11 12  2  0  0  0  0
 11 16  1  0  0  0  0
 12 13  1  0  0  0  0
 13 14  2  0  0  0  0
 14 15  1  0  0  0  0
 15 16  2  0  0  0  0
 17 18  1  0  0  0  0
 17 45  1  0  0  0  0
 18 19  1  0  0  0  0
 19 20  1  0  0  0  0
 19 21  1  0  0  0  0
 19 22  1  0  0  0  0
 22 23  1  0  0  0  0
 22 28  1  0  0  0  0
 23 24  1  0  0  0  0
 24 25  1  0  0  0  0
 24 26  1  0  0  0  0
 24 27  1  0  0  0  0
 27 28  1  0  0  0  0
 27 33  1  0  0  0  0
 28 29  1  0  0  0  0
 29 30  1  0  0  0  0
 30 31  1  0  0  0  0
 30 32  2  0  0  0  0
 33 34  2  0  0  0  0
 33 35  1  0  0  0  0
 35 36  1  0  0  0  0
 36 37  1  0  0  0  0
 37 38  2  0  0  0  0
 37 39  1  0  0  0  0
 39 40  2  0  0  0  0
 39 44  1  0  0  0  0
 40 41  1  0  0  0  0
 41 42  2  0  0  0  0
 42 43  1  0  0  0  0
 43 44  2  0  0  0  0
 45 46  1  0  0  0  0
 46 47  2  0  0  0  0
 46 48  1  0  0  0  0
 48 49  2  0  0  0  0
 48 53  1  0  0  0  0
 49 50  1  0  0  0  0
 50 51  2  0  0  0  0
 51 52  1  0  0  0  0
 52 53  2  0  0  0  0
M  END
$$$$

 OpenBabel12191814062D

 51 55  0  0  0  0  0  0  0  0999 V2000
    4.2455    2.3736    0.0000 C   0  0  0  0  0  0  0  0  0  0  0  0
    3.3575    2.3382    0.0000 C   0  0  0  0  0  0  0  0  0  0  0  0
    3.1106    1.4655    0.0000 O   0  0  0  0  0  0  0  0  0  0  0  0
    2.4679    2.6837    0.0000 O   0  0  0  0  0  0  0  0  0  0  0  0
    1.7313    2.2018    0.0000 C   0  0  0  0  0  0  0  0  0  0  0  0
    0.9881    1.5419    0.0000 C   0  0  3  0  0  0  0  0  0  0  0  0
    1.8298    1.5673    0.0000 C   0  0  3  0  0  0  0  0  0  0  0  0
    2.7315    2.0625    0.0000 O   0  0  0  0  0  0  0  0  0  0  0  0
    3.2323    3.0288    0.0000 C   0  0  0  0  0  0  0  0  0  0  0  0
    3.3675    3.8759    0.0000 C   0  0  0  0  0  0  0  0  0  0  0  0
    3.9941    3.4426    0.0000 O   0  0  0  0  0  0  0  0  0  0  0  0
    2.2792    0.8674    0.0000 C   0  0  3  0  0  0  0  0  0  0  0  0
    1.9060    0.1250    0.0000 C   0  0  0  0  0  0  0  0  0  0  0  0
    1.0812    0.0746    0.0000 C   0  0  3  0  0  0  0  0  0  0  0  0
    1.4025   -0.7575    0.0000 C   0  0  0  0  0  0  0  0  0  0  0  0
    0.6126   -0.6790    0.0000 O   0  0  0  0  0  0  0  0  0  0  0  0
    0.5808    0.7540    0.0000 C   0  0  3  0  0  0  0  0  0  0  0  0
   -0.1007    0.1726    0.0000 O   0  0  0  0  0  0  0  0  0  0  0  0
   -0.8607    0.5953    0.0000 C   0  0  0  0  0  0  0  0  0  0  0  0
   -1.3868   -0.1113    0.0000 C   0  0  0  0  0  0  0  0  0  0  0  0
   -1.7074    0.7618    0.0000 C   0  0  0  0  0  0  0  0  0  0  0  0
   -0.6954    1.4426    0.0000 C   0  0  3  0  0  0  0  0  0  0  0  0
   -0.0175    1.1439    0.0000 C   0  0  3  0  0  0  0  0  0  0  0  0
    0.2846    1.8552    0.0000 O   0  0  0  0  0  0  0  0  0  0  0  0
    0.0525    2.7044    0.0000 C   0  0  0  0  0  0  0  0  0  0  0  0
   -0.7900    2.8394    0.0000 C   0  0  0  0  0  0  0  0  0  0  0  0
   -0.0600    3.5077    0.0000 O   0  0  0  0  0  0  0  0  0  0  0  0
   -0.3272    2.2252    0.0000 C   0  0  3  0  0  0  0  0  0  0  0  0
   -1.2874    2.4318    0.0000 O   0  0  0  0  0  0  0  0  0  0  0  0
   -2.1863    2.6345    0.0000 C   0  0  0  0  0  0  0  0  0  0  0  0
   -2.8465    2.0696    0.0000 O   0  0  0  0  0  0  0  0  0  0  0  0
   -2.2974    3.5539    0.0000 C   0  0  0  0  0  0  0  0  0  0  0  0
   -3.1196    3.6216    0.0000 C   0  0  0  0  0  0  0  0  0  0  0  0
   -3.4720    4.3675    0.0000 C   0  0  0  0  0  0  0  0  0  0  0  0
   -3.0023    5.0457    0.0000 C   0  0  0  0  0  0  0  0  0  0  0  0
   -2.1801    4.9780    0.0000 C   0  0  0  0  0  0  0  0  0  0  0  0
   -1.8276    4.2321    0.0000 C   0  0  0  0  0  0  0  0  0  0  0  0
    0.5304    2.2931    0.0000 C   0  0  3  0  0  0  0  0  0  0  0  0
    0.6359    3.2162    0.0000 O   0  0  0  0  0  0  0  0  0  0  0  0
    0.1615    4.0524    0.0000 C   0  0  0  0  0  0  0  0  0  0  0  0
   -0.3261    4.7317    0.0000 O   0  0  0  0  0  0  0  0  0  0  0  0
    0.6350    4.6959    0.0000 C   0  0  0  0  0  0  0  0  0  0  0  0
    0.2281    5.4136    0.0000 C   0  0  0  0  0  0  0  0  0  0  0  0
    0.6462    6.1248    0.0000 C   0  0  0  0  0  0  0  0  0  0  0  0
    1.4711    6.1183    0.0000 C   0  0  0  0  0  0  0  0  0  0  0  0
    1.8780    5.4007    0.0000 C   0  0  0  0  0  0  0  0  0  0  0  0
    1.4599    4.6894    0.0000 C   0  0  0  0  0  0  0  0  0  0  0  0
    3.0873    0.3008    0.0000 O   0  0  0  0  0  0  0  0  0  0  0  0
    3.6676   -0.3988    0.0000 C   0  0  0  0  0  0  0  0  0  0  0  0
    4.5355   -0.3252    0.0000 C   0  0  0  0  0  0  0  0  0  0  0  0
    3.7637   -1.2203    0.0000 O   0  0  0  0  0  0  0  0  0  0  0  0
  1  2  1  0  0  0  0
  2  3  2  0  0  0  0
  2  4  1  0  0  0  0
  4  5  1  0  0  0  0
  5  6  1  0  0  0  0
  6  7  1  0  0  0  0
  6 17  1  0  0  0  0
  6 38  1  0  0  0  0
  7  8  1  0  0  0  0
  7 12  1  0  0  0  0
  8  9  1  0  0  0  0
  9 10  1  0  0  0  0
  9 11  2  0  0  0  0
 12 13  1  0  0  0  0
 12 48  1  0  0  0  0
 13 14  1  0  0  0  0
 14 15  1  0  0  0  0
 14 16  1  0  0  0  0
 14 17  1  0  0  0  0
 17 18  1  0  0  0  0
 17 23  1  0  0  0  0
 18 19  1  0  0  0  0
 19 20  1  0  0  0  0
 19 21  1  0  0  0  0
 19 22  1  0  0  0  0
 22 23  1  0  0  0  0
 22 28  1  0  0  0  0
 23 24  1  0  0  0  0
 24 25  1  0  0  0  0
 25 26  1  0  0  0  0
 25 27  2  0  0  0  0
 28 29  1  0  0  0  0
 28 38  1  0  0  0  0
 29 30  1  0  0  0  0
 30 31  2  0  0  0  0
 30 32  1  0  0  0  0
 32 33  2  0  0  0  0
 32 37  1  0  0  0  0
 33 34  1  0  0  0  0
 34 35  2  0  0  0  0
 35 36  1  0  0  0  0
 36 37  2  0  0  0  0
 38 39  1  0  0  0  0
 39 40  1  0  0  0  0
 40 41  2  0  0  0  0
 40 42  1  0  0  0  0
 42 43  2  0  0  0  0
 42 47  1  0  0  0  0
 43 44  1  0  0  0  0
 44 45  2  0  0  0  0
 45 46  1  0  0  0  0
 46 47  2  0  0  0  0
 48 49  1  0  0  0  0
 49 50  1  0  0  0  0
 49 51  2  0  0  0  0
M  END
$$$$

 OpenBabel12191814062D

 46 49  0  0  0  0  0  0  0  0999 V2000
    2.8579    0.8250    0.0000 C   0  0  0  0  0  0  0  0  0  0  0  0
    2.1434    1.2375    0.0000 C   0  0  0  0  0  0  0  0  0  0  0  0
    1.4289    0.8250    0.0000 O   0  0  0  0  0  0  0  0  0  0  0  0
    2.1434    2.0625    0.0000 O   0  0  0  0  0  0  0  0  0  0  0  0
    1.4289    2.4750    0.0000 C   0  0  0  0  0  0  0  0  0  0  0  0
    0.7145    2.0625    0.0000 C   0  0  3  0  0  0  0  0  0  0  0  0
    0.7145    1.2375    0.0000 O   0  0  0  0  0  0  0  0  0  0  0  0
    0.0000    0.8250    0.0000 C   0  0  3  0  0  0  0  0  0  0  0  0
   -0.7145    1.2375    0.0000 C   0  0  3  0  0  0  0  0  0  0  0  0
   -1.4289    0.8250    0.0000 O   0  0  0  0  0  0  0  0  0  0  0  0
   -2.1434    1.2375    0.0000 C   0  0  0  0  0  0  0  0  0  0  0  0
   -2.8579    0.8250    0.0000 C   0  0  0  0  0  0  0  0  0  0  0  0
   -2.1434    2.0625    0.0000 O   0  0  0  0  0  0  0  0  0  0  0  0
   -0.7145    2.0625    0.0000 C   0  0  3  0  0  0  0  0  0  0  0  0
   -1.4289    2.4750    0.0000 O   0  0  0  0  0  0  0  0  0  0  0  0
   -1.4289    3.3000    0.0000 C   0  0  0  0  0  0  0  0  0  0  0  0
   -2.1434    3.7125    0.0000 C   0  0  0  0  0  0  0  0  0  0  0  0
   -0.7145    3.7125    0.0000 O   0  0  0  0  0  0  0  0  0  0  0  0
    0.0000    2.4750    0.0000 C   0  0  3  0  0  0  0  0  0  0  0  0
    0.0000    3.3000    0.0000 O   0  0  0  0  0  0  0  0  0  0  0  0
    0.7145    3.7125    0.0000 C   0  0  0  0  0  0  0  0  0  0  0  0
    1.4289    3.3000    0.0000 C   0  0  0  0  0  0  0  0  0  0  0  0
    0.7145    4.5375    0.0000 O   0  0  0  0  0  0  0  0  0  0  0  0
    0.0000   -0.0000    0.0000 N   0  0  0  0  0  0  0  0  0  0  0  0
   -0.7145   -0.4125    0.0000 C   0  0  0  0  0  0  0  0  0  0  0  0
   -1.4289   -0.0000    0.0000 S   0  0  0  0  0  0  0  0  0  0  0  0
   -0.7145   -1.2375    0.0000 C   0  0  0  0  0  0  0  0  0  0  0  0
   -1.4289   -1.6500    0.0000 C   0  0  0  0  0  0  0  0  0  0  0  0
   -2.1434   -2.0625    0.0000 N   0  0  0  0  0  0  0  0  0  0  0  0
    0.0000   -1.6500    0.0000 C   0  0  0  0  0  0  0  0  0  0  0  0
    0.7145   -1.2375    0.0000 C   0  0  0  0  0  0  0  0  0  0  0  0
    0.7145   -0.4125    0.0000 C   0  0  0  0  0  0  0  0  0  0  0  0
    1.4289   -0.0000    0.0000 C   0  0  0  0  0  0  0  0  0  0  0  0
    2.1434   -0.4125    0.0000 C   0  0  0  0  0  0  0  0  0  0  0  0
    2.4256    0.3627    0.0000 C   0  0  0  0  0  0  0  0  0  0  0  0
    2.9559   -0.5558    0.0000 C   0  0  0  0  0  0  0  0  0  0  0  0
    2.1434   -1.2375    0.0000 C   0  0  0  0  0  0  0  0  0  0  0  0
    1.4289   -1.6500    0.0000 C   0  0  0  0  0  0  0  0  0  0  0  0
    1.4289   -2.4750    0.0000 O   0  0  0  0  0  0  0  0  0  0  0  0
    0.0000   -2.4750    0.0000 C   0  0  0  0  0  0  0  0  0  0  0  0
    0.7145   -2.8875    0.0000 C   0  0  0  0  0  0  0  0  0  0  0  0
    0.7145   -3.7125    0.0000 C   0  0  0  0  0  0  0  0  0  0  0  0
    0.0000   -4.1250    0.0000 C   0  0  0  0  0  0  0  0  0  0  0  0
    0.0000   -4.9500    0.0000 Cl  0  0  0  0  0  0  0  0  0  0  0  0
   -0.7145   -3.7125    0.0000 C   0  0  0  0  0  0  0  0  0  0  0  0
   -0.7145   -2.8875    0.0000 C   0  0  0  0  0  0  0  0  0  0  0  0
  1  2  1  0  0  0  0
  2  3  2  0  0  0  0
  2  4  1  0  0  0  0
  4  5  1  0  0  0  0
  5  6  1  0  0  0  0
  6  7  1  0  0  0  0
  6 19  1  0  0  0  0
  7  8  1  0  0  0  0
  8  9  1  0  0  0  0
  8 24  1  0  0  0  0
  9 10  1  0  0  0  0
  9 14  1  0  0  0  0
 10 11  1  0  0  0  0
 11 12  1  0  0  0  0
 11 13  2  0  0  0  0
 14 15  1  0  0  0  0
 14 19  1  0  0  0  0
 15 16  1  0  0  0  0
 16 17  1  0  0  0  0
 16 18  2  0  0  0  0
 19 20  1  0  0  0  0
 20 21  1  0  0  0  0
 21 22  1  0  0  0  0
 21 23  2  0  0  0  0
 24 25  1  0  0  0  0
 24 32  1  0  0  0  0
 25 26  2  0  0  0  0
 25 27  1  0  0  0  0
 27 28  1  0  0  0  0
 27 30  2  0  0  0  0
 28 29  3  0  0  0  0
 30 31  1  0  0  0  0
 30 40  1  0  0  0  0
 31 32  2  0  0  0  0
 31 38  1  0  0  0  0
 32 33  1  0  0  0  0
 33 34  1  0  0  0  0
 34 35  1  0  0  0  0
 34 36  1  0  0  0  0
 34 37  1  0  0  0  0
 37 38  1  0  0  0  0
 38 39  2  0  0  0  0
 40 41  2  0  0  0  0
 40 46  1  0  0  0  0
 41 42  1  0  0  0  0
 42 43  2  0  0  0  0
 43 44  1  0  0  0  0
 43 45  1  0  0  0  0
 45 46  2  0  0  0  0
M  END
$$$$

 OpenBabel12191814062D

 44 47  0  0  0  0  0  0  0  0999 V2000
   -0.7145   -1.2375    0.0000 C   0  0  0  0  0  0  0  0  0  0  0  0
    0.0000   -1.6500    0.0000 C   0  0  0  0  0  0  0  0  0  0  0  0
    0.7145   -1.2375    0.0000 O   0  0  0  0  0  0  0  0  0  0  0  0
    0.0000   -2.4750    0.0000 O   0  0  0  0  0  0  0  0  0  0  0  0
    0.7145   -2.8875    0.0000 C   0  0  0  0  0  0  0  0  0  0  0  0
    0.7145   -3.7125    0.0000 C   0  0  3  0  0  0  0  0  0  0  0  0
    0.0000   -4.1250    0.0000 O   0  0  0  0  0  0  0  0  0  0  0  0
    0.0000   -4.9500    0.0000 C   0  0  3  0  0  0  0  0  0  0  0  0
    0.7145   -5.3625    0.0000 C   0  0  3  0  0  0  0  0  0  0  0  0
    0.7145   -6.1875    0.0000 O   0  0  0  0  0  0  0  0  0  0  0  0
    1.4289   -6.6000    0.0000 C   0  0  0  0  0  0  0  0  0  0  0  0
    2.1434   -6.1875    0.0000 C   0  0  0  0  0  0  0  0  0  0  0  0
    1.4289   -7.4250    0.0000 O   0  0  0  0  0  0  0  0  0  0  0  0
    1.4289   -4.9500    0.0000 C   0  0  3  0  0  0  0  0  0  0  0  0
    2.1434   -5.3625    0.0000 O   0  0  0  0  0  0  0  0  0  0  0  0
    2.8579   -4.9500    0.0000 C   0  0  0  0  0  0  0  0  0  0  0  0
    2.8579   -4.1250    0.0000 C   0  0  0  0  0  0  0  0  0  0  0  0
    3.5724   -5.3625    0.0000 O   0  0  0  0  0  0  0  0  0  0  0  0
    1.4289   -4.1250    0.0000 C   0  0  3  0  0  0  0  0  0  0  0  0
    2.1434   -3.7125    0.0000 O   0  0  0  0  0  0  0  0  0  0  0  0
    2.1434   -2.8875    0.0000 C   0  0  0  0  0  0  0  0  0  0  0  0
    2.8579   -2.4750    0.0000 C   0  0  0  0  0  0  0  0  0  0  0  0
    1.4289   -2.4750    0.0000 O   0  0  0  0  0  0  0  0  0  0  0  0
   -0.7145   -5.3625    0.0000 N   0  0  0  0  0  0  0  0  0  0  0  0
   -0.7145   -6.1875    0.0000 C   0  0  0  0  0  0  0  0  0  0  0  0
    0.0000   -6.6000    0.0000 S   0  0  0  0  0  0  0  0  0  0  0  0
   -1.4289   -6.6000    0.0000 C   0  0  3  0  0  0  0  0  0  0  0  0
   -1.4289   -7.4250    0.0000 C   0  0  0  0  0  0  0  0  0  0  0  0
   -1.4289   -8.2500    0.0000 N   0  0  0  0  0  0  0  0  0  0  0  0
   -2.1434   -6.1875    0.0000 C   0  0  3  0  0  0  0  0  0  0  0  0
   -2.1434   -5.3625    0.0000 C   0  0  0  0  0  0  0  0  0  0  0  0
   -1.4289   -4.9500    0.0000 C   0  0  0  0  0  0  0  0  0  0  0  0
   -1.4289   -4.1250    0.0000 C   0  0  0  0  0  0  0  0  0  0  0  0
   -2.1434   -3.7125    0.0000 C   0  0  0  0  0  0  0  0  0  0  0  0
   -2.1434   -2.8875    0.0000 C   0  0  0  0  0  0  0  0  0  0  0  0
   -1.4289   -2.4750    0.0000 C   0  0  0  0  0  0  0  0  0  0  0  0
   -0.7145   -2.8875    0.0000 C   0  0  0  0  0  0  0  0  0  0  0  0
   -0.7145   -3.7125    0.0000 C   0  0  0  0  0  0  0  0  0  0  0  0
   -2.8579   -6.6000    0.0000 C   0  0  0  0  0  0  0  0  0  0  0  0
   -2.8579   -7.4250    0.0000 C   0  0  0  0  0  0  0  0  0  0  0  0
   -3.5724   -7.8375    0.0000 C   0  0  0  0  0  0  0  0  0  0  0  0
   -4.2868   -7.4250    0.0000 C   0  0  0  0  0  0  0  0  0  0  0  0
   -4.2868   -6.6000    0.0000 C   0  0  0  0  0  0  0  0  0  0  0  0
   -3.5724   -6.1875    0.0000 C   0  0  0  0  0  0  0  0  0  0  0  0
  1  2  1  0  0  0  0
  2  3  2  0  0  0  0
  2  4  1  0  0  0  0
  4  5  1  0  0  0  0
  5  6  1  0  0  0  0
  6  7  1  0  0  0  0
  6 19  1  0  0  0  0
  7  8  1  0  0  0  0
  8  9  1  0  0  0  0
  8 24  1  0  0  0  0
  9 10  1  0  0  0  0
  9 14  1  0  0  0  0
 10 11  1  0  0  0  0
 11 12  1  0  0  0  0
 11 13  2  0  0  0  0
 14 15  1  0  0  0  0
 14 19  1  0  0  0  0
 15 16  1  0  0  0  0
 16 17  1  0  0  0  0
 16 18  2  0  0  0  0
 19 20  1  0  0  0  0
 20 21  1  0  0  0  0
 21 22  1  0  0  0  0
 21 23  2  0  0  0  0
 24 25  1  0  0  0  0
 24 32  1  0  0  0  0
 25 26  2  0  0  0  0
 25 27  1  0  0  0  0
 27 28  1  0  0  0  0
 27 30  1  0  0  0  0
 28 29  3  0  0  0  0
 30 31  1  0  0  0  0
 30 39  1  0  0  0  0
 31 32  2  0  0  0  0
 32 33  1  0  0  0  0
 33 34  2  0  0  0  0
 33 38  1  0  0  0  0
 34 35  1  0  0  0  0
 35 36  2  0  0  0  0
 36 37  1  0  0  0  0
 37 38  2  0  0  0  0
 39 40  2  0  0  0  0
 39 44  1  0  0  0  0
 40 41  1  0  0  0  0
 41 42  2  0  0  0  0
 42 43  1  0  0  0  0
 43 44  2  0  0  0  0
M  END
$$$$

 OpenBabel12191814062D

 43 46  0  0  0  0  0  0  0  0999 V2000
   -4.8946    2.0009    0.0000 C   0  0  0  0  0  0  0  0  0  0  0  0
   -4.1801    2.4134    0.0000 C   0  0  0  0  0  0  0  0  0  0  0  0
   -4.1801    3.2384    0.0000 O   0  0  0  0  0  0  0  0  0  0  0  0
   -3.4656    2.0009    0.0000 O   0  0  0  0  0  0  0  0  0  0  0  0
   -2.7512    2.4134    0.0000 C   0  0  0  0  0  0  0  0  0  0  0  0
   -2.0367    2.0009    0.0000 C   0  0  3  0  0  0  0  0  0  0  0  0
   -2.0367    1.1759    0.0000 O   0  0  0  0  0  0  0  0  0  0  0  0
   -1.3222    0.7634    0.0000 C   0  0  3  0  0  0  0  0  0  0  0  0
   -0.6078    1.1759    0.0000 C   0  0  3  0  0  0  0  0  0  0  0  0
    0.1067    0.7634    0.0000 O   0  0  0  0  0  0  0  0  0  0  0  0
    0.8212    1.1759    0.0000 C   0  0  0  0  0  0  0  0  0  0  0  0
    0.8212    2.0009    0.0000 C   0  0  0  0  0  0  0  0  0  0  0  0
    1.5356    0.7634    0.0000 O   0  0  0  0  0  0  0  0  0  0  0  0
   -0.6078    2.0009    0.0000 C   0  0  3  0  0  0  0  0  0  0  0  0
    0.1067    2.4134    0.0000 O   0  0  0  0  0  0  0  0  0  0  0  0
    0.1067    3.2384    0.0000 C   0  0  0  0  0  0  0  0  0  0  0  0
   -0.6078    3.6509    0.0000 C   0  0  0  0  0  0  0  0  0  0  0  0
    0.8212    3.6509    0.0000 O   0  0  0  0  0  0  0  0  0  0  0  0
   -1.3222    2.4134    0.0000 C   0  0  3  0  0  0  0  0  0  0  0  0
   -1.3222    3.2384    0.0000 O   0  0  0  0  0  0  0  0  0  0  0  0
   -2.0367    3.6509    0.0000 C   0  0  0  0  0  0  0  0  0  0  0  0
   -2.0367    4.4759    0.0000 C   0  0  0  0  0  0  0  0  0  0  0  0
   -2.7512    3.2384    0.0000 O   0  0  0  0  0  0  0  0  0  0  0  0
   -1.3222   -0.0616    0.0000 N   0  0  0  0  0  0  0  0  0  0  0  0
   -0.6078   -0.4741    0.0000 C   0  0  0  0  0  0  0  0  0  0  0  0
    0.1067   -0.0616    0.0000 S   0  0  0  0  0  0  0  0  0  0  0  0
   -0.6078   -1.2991    0.0000 C   0  0  3  0  0  0  0  0  0  0  0  0
    0.1067   -1.7116    0.0000 C   0  0  0  0  0  0  0  0  0  0  0  0
    0.8212   -2.1241    0.0000 N   0  0  0  0  0  0  0  0  0  0  0  0
   -1.3222   -1.7116    0.0000 C   0  0  3  0  0  0  0  0  0  0  0  0
   -2.0367   -1.2991    0.0000 C   0  0  0  0  0  0  0  0  0  0  0  0
   -2.0367   -0.4741    0.0000 C   0  0  0  0  0  0  0  0  0  0  0  0
   -2.7512   -0.0616    0.0000 C   0  0  0  0  0  0  0  0  0  0  0  0
   -3.4656   -0.4741    0.0000 C   0  0  0  0  0  0  0  0  0  0  0  0
   -4.1801   -0.0616    0.0000 C   0  0  0  0  0  0  0  0  0  0  0  0
   -4.1801    0.7634    0.0000 C   0  0  0  0  0  0  0  0  0  0  0  0
   -3.4656    1.1759    0.0000 C   0  0  0  0  0  0  0  0  0  0  0  0
   -2.7512    0.7634    0.0000 C   0  0  0  0  0  0  0  0  0  0  0  0
   -1.3222   -2.5366    0.0000 C   0  0  0  0  0  0  0  0  0  0  0  0
   -0.6548   -3.0215    0.0000 C   0  0  0  0  0  0  0  0  0  0  0  0
   -0.9097   -3.8062    0.0000 C   0  0  0  0  0  0  0  0  0  0  0  0
   -1.7347   -3.8062    0.0000 C   0  0  0  0  0  0  0  0  0  0  0  0
   -1.9897   -3.0215    0.0000 O   0  0  0  0  0  0  0  0  0  0  0  0
  1  2  1  0  0  0  0
  2  3  2  0  0  0  0
  2  4  1  0  0  0  0
  4  5  1  0  0  0  0
  5  6  1  0  0  0  0
  6  7  1  0  0  0  0
  6 19  1  0  0  0  0
  7  8  1  0  0  0  0
  8  9  1  0  0  0  0
  8 24  1  0  0  0  0
  9 10  1  0  0  0  0
  9 14  1  0  0  0  0
 10 11  1  0  0  0  0
 11 12  1  0  0  0  0
 11 13  2  0  0  0  0
 14 15  1  0  0  0  0
 14 19  1  0  0  0  0
 15 16  1  0  0  0  0
 16 17  1  0  0  0  0
 16 18  2  0  0  0  0
 19 20  1  0  0  0  0
 20 21  1  0  0  0  0
 21 22  1  0  0  0  0
 21 23  2  0  0  0  0
 24 25  1  0  0  0  0
 24 32  1  0  0  0  0
 25 26  2  0  0  0  0
 25 27  1  0  0  0  0
 27 28  1  0  0  0  0
 27 30  1  0  0  0  0
 28 29  3  0  0  0  0
 30 31  1  0  0  0  0
 30 39  1  0  0  0  0
 31 32  2  0  0  0  0
 32 33  1  0  0  0  0
 33 34  2  0  0  0  0
 33 38  1  0  0  0  0
 34 35  1  0  0  0  0
 35 36  2  0  0  0  0
 36 37  1  0  0  0  0
 37 38  2  0  0  0  0
 39 40  2  0  0  0  0
 39 43  1  0  0  0  0
 40 41  1  0  0  0  0
 41 42  2  0  0  0  0
 42 43  1  0  0  0  0
M  END
$$$$

 OpenBabel12191814062D

 29 33  0  0  0  0  0  0  0  0999 V2000
    1.3541   -4.9675    0.0000 C   0  0  0  0  0  0  0  0  0  0  0  0
    2.1774   -5.0205    0.0000 C   0  0  0  0  0  0  0  0  0  0  0  0
    2.5431   -5.7600    0.0000 O   0  0  0  0  0  0  0  0  0  0  0  0
    2.6350   -4.3340    0.0000 S   0  0  0  0  0  0  0  0  0  0  0  0
    2.2692   -3.5945    0.0000 C   0  0  3  0  0  0  0  0  0  0  0  0
    1.4459   -3.5415    0.0000 C   0  0  0  0  0  0  0  0  0  0  0  0
    1.0802   -2.8020    0.0000 C   0  0  0  0  0  0  0  0  0  0  0  0
    0.2569   -2.7490    0.0000 C   0  0  0  0  0  0  0  0  0  0  0  0
   -0.1088   -2.0095    0.0000 C   0  0  0  0  0  0  0  0  0  0  0  0
   -0.9321   -1.9565    0.0000 O   0  0  0  0  0  0  0  0  0  0  0  0
    0.3487   -1.3230    0.0000 C   0  0  0  0  0  0  0  0  0  0  0  0
    1.1720   -1.3760    0.0000 C   0  0  0  0  0  0  0  0  0  0  0  0
    1.5378   -2.1155    0.0000 C   0  0  3  0  0  0  0  0  0  0  0  0
    1.9953   -1.4290    0.0000 C   0  0  0  0  0  0  0  0  0  0  0  0
    2.3611   -2.1685    0.0000 C   0  0  3  0  0  0  0  0  0  0  0  0
    2.8186   -1.4820    0.0000 C   0  0  0  0  0  0  0  0  0  0  0  0
    3.6419   -1.5351    0.0000 C   0  0  0  0  0  0  0  0  0  0  0  0
    4.0076   -2.2746    0.0000 C   0  0  3  0  0  0  0  0  0  0  0  0
    4.3125   -1.5080    0.0000 C   0  0  0  0  0  0  0  0  0  0  0  0
    3.5501   -2.9611    0.0000 C   0  0  3  0  0  0  0  0  0  0  0  0
    4.0616   -3.6084    0.0000 C   0  0  0  0  0  0  0  0  0  0  0  0
    4.8353   -3.3219    0.0000 C   0  0  0  0  0  0  0  0  0  0  0  0
    4.8019   -2.4976    0.0000 C   0  0  3  0  0  0  0  0  0  0  0  0
    4.7686   -1.6733    0.0000 C   0  0  0  0  0  0  0  0  0  0  0  0
    5.5423   -1.3868    0.0000 C   0  0  0  0  0  0  0  0  0  0  0  0
    6.0538   -2.0341    0.0000 C   0  0  0  0  0  0  0  0  0  0  0  0
    6.8781   -2.0008    0.0000 O   0  0  0  0  0  0  0  0  0  0  0  0
    5.5962   -2.7206    0.0000 O   0  0  0  0  0  0  0  0  0  0  0  0
    2.7268   -2.9080    0.0000 C   0  0  3  0  0  0  0  0  0  0  0  0
  1  2  1  0  0  0  0
  2  3  2  0  0  0  0
  2  4  1  0  0  0  0
  4  5  1  0  0  0  0
  5  6  1  0  0  0  0
  5 29  1  0  0  0  0
  6  7  1  0  0  0  0
  7  8  2  0  0  0  0
  7 13  1  0  0  0  0
  8  9  1  0  0  0  0
  9 10  2  0  0  0  0
  9 11  1  0  0  0  0
 11 12  1  0  0  0  0
 12 13  1  0  0  0  0
 13 14  1  0  0  0  0
 13 15  1  0  0  0  0
 15 16  1  0  0  0  0
 15 29  1  0  0  0  0
 16 17  1  0  0  0  0
 17 18  1  0  0  0  0
 18 19  1  0  0  0  0
 18 20  1  0  0  0  0
 18 23  1  0  0  0  0
 20 21  1  0  0  0  0
 20 29  1  0  0  0  0
 21 22  1  0  0  0  0
 22 23  1  0  0  0  0
 23 24  1  0  0  0  0
 23 28  1  0  0  0  0
 24 25  1  0  0  0  0
 25 26  1  0  0  0  0
 26 27  2  0  0  0  0
 26 28  1  0  0  0  0
M  END
$$$$

 OpenBabel12191814062D

 44 48  0  0  0  0  0  0  0  0999 V2000
    2.5855    4.3164    0.0000 C   0  0  0  0  0  0  0  0  0  0  0  0
    3.4105    4.3164    0.0000 C   0  0  0  0  0  0  0  0  0  0  0  0
    3.4105    3.4914    0.0000 C   0  0  0  0  0  0  0  0  0  0  0  0
    2.6961    3.0789    0.0000 O   0  0  0  0  0  0  0  0  0  0  0  0
    4.1250    3.0789    0.0000 O   0  0  0  0  0  0  0  0  0  0  0  0
    4.1250    2.2539    0.0000 C   0  0  0  0  0  0  0  0  0  0  0  0
    4.8395    1.8414    0.0000 C   0  0  0  0  0  0  0  0  0  0  0  0
    4.8395    1.0164    0.0000 N   0  0  0  0  0  0  0  0  0  0  0  0
    5.5539    0.6039    0.0000 C   0  0  0  0  0  0  0  0  0  0  0  0
    5.5539   -0.2211    0.0000 C   0  0  0  0  0  0  0  0  0  0  0  0
    4.8395   -0.6336    0.0000 N   0  0  0  0  0  0  0  0  0  0  0  0
    4.8395   -1.4586    0.0000 C   0  0  0  0  0  0  0  0  0  0  0  0
    4.1250   -1.8711    0.0000 C   0  0  0  0  0  0  0  0  0  0  0  0
    4.1250   -2.6961    0.0000 O   0  0  0  0  0  0  0  0  0  0  0  0
    3.4105   -3.1086    0.0000 C   0  0  0  0  0  0  0  0  0  0  0  0
    2.6961   -2.6961    0.0000 O   0  0  0  0  0  0  0  0  0  0  0  0
    3.4105   -3.9336    0.0000 C   0  0  0  0  0  0  0  0  0  0  0  0
    2.5855   -3.9336    0.0000 C   0  0  0  0  0  0  0  0  0  0  0  0
    3.4105   -4.7586    0.0000 C   0  0  0  0  0  0  0  0  0  0  0  0
    4.1250   -5.1711    0.0000 C   0  0  0  0  0  0  0  0  0  0  0  0
    4.1250   -5.9961    0.0000 C   0  0  0  0  0  0  0  0  0  0  0  0
    3.4105   -6.4086    0.0000 C   0  0  0  0  0  0  0  0  0  0  0  0
    2.6961   -5.9961    0.0000 C   0  0  0  0  0  0  0  0  0  0  0  0
    2.6961   -5.1711    0.0000 C   0  0  0  0  0  0  0  0  0  0  0  0
    4.2355   -3.9336    0.0000 C   0  0  0  0  0  0  0  0  0  0  0  0
    4.6480   -3.2191    0.0000 C   0  0  0  0  0  0  0  0  0  0  0  0
    5.4730   -3.2191    0.0000 C   0  0  0  0  0  0  0  0  0  0  0  0
    5.8855   -3.9336    0.0000 C   0  0  0  0  0  0  0  0  0  0  0  0
    5.4730   -4.6480    0.0000 C   0  0  0  0  0  0  0  0  0  0  0  0
    4.6480   -4.6480    0.0000 C   0  0  0  0  0  0  0  0  0  0  0  0
    4.1250   -0.2211    0.0000 C   0  0  0  0  0  0  0  0  0  0  0  0
    4.1250    0.6039    0.0000 C   0  0  0  0  0  0  0  0  0  0  0  0
    3.4105    5.1414    0.0000 C   0  0  0  0  0  0  0  0  0  0  0  0
    2.6961    5.5539    0.0000 C   0  0  0  0  0  0  0  0  0  0  0  0
    2.6961    6.3789    0.0000 C   0  0  0  0  0  0  0  0  0  0  0  0
    3.4105    6.7914    0.0000 C   0  0  0  0  0  0  0  0  0  0  0  0
    4.1250    6.3789    0.0000 C   0  0  0  0  0  0  0  0  0  0  0  0
    4.1250    5.5539    0.0000 C   0  0  0  0  0  0  0  0  0  0  0  0
    4.2355    4.3164    0.0000 C   0  0  0  0  0  0  0  0  0  0  0  0
    4.6480    5.0309    0.0000 C   0  0  0  0  0  0  0  0  0  0  0  0
    5.4730    5.0309    0.0000 C   0  0  0  0  0  0  0  0  0  0  0  0
    5.8855    4.3164    0.0000 C   0  0  0  0  0  0  0  0  0  0  0  0
    5.4730    3.6020    0.0000 C   0  0  0  0  0  0  0  0  0  0  0  0
    4.6480    3.6020    0.0000 C   0  0  0  0  0  0  0  0  0  0  0  0
  1  2  1  0  0  0  0
  2  3  1  0  0  0  0
  2 33  1  0  0  0  0
  2 39  1  0  0  0  0
  3  4  2  0  0  0  0
  3  5  1  0  0  0  0
  5  6  1  0  0  0  0
  6  7  1  0  0  0  0
  7  8  1  0  0  0  0
  8  9  1  0  0  0  0
  8 32  1  0  0  0  0
  9 10  1  0  0  0  0
 10 11  1  0  0  0  0
 11 12  1  0  0  0  0
 11 31  1  0  0  0  0
 12 13  1  0  0  0  0
 13 14  1  0  0  0  0
 14 15  1  0  0  0  0
 15 16  2  0  0  0  0
 15 17  1  0  0  0  0
 17 18  1  0  0  0  0
 17 19  1  0  0  0  0
 17 25  1  0  0  0  0
 19 20  2  0  0  0  0
 19 24  1  0  0  0  0
 20 21  1  0  0  0  0
 21 22  2  0  0  0  0
 22 23  1  0  0  0  0
 23 24  2  0  0  0  0
 25 26  2  0  0  0  0
 25 30  1  0  0  0  0
 26 27  1  0  0  0  0
 27 28  2  0  0  0  0
 28 29  1  0  0  0  0
 29 30  2  0  0  0  0
 31 32  1  0  0  0  0
 33 34  2  0  0  0  0
 33 38  1  0  0  0  0
 34 35  1  0  0  0  0
 35 36  2  0  0  0  0
 36 37  1  0  0  0  0
 37 38  2  0  0  0  0
 39 40  2  0  0  0  0
 39 44  1  0  0  0  0
 40 41  1  0  0  0  0
 41 42  2  0  0  0  0
 42 43  1  0  0  0  0
 43 44  2  0  0  0  0
M  END
$$$$

 OpenBabel12191814062D

 40 44  0  0  0  0  0  0  0  0999 V2000
    2.1434   -2.8875    0.0000 C   0  0  0  0  0  0  0  0  0  0  0  0
    1.4289   -2.4750    0.0000 C   0  0  3  0  0  0  0  0  0  0  0  0
    0.7145   -2.8875    0.0000 C   0  0  0  0  0  0  0  0  0  0  0  0
    0.0000   -2.4750    0.0000 O   0  0  0  0  0  0  0  0  0  0  0  0
    0.7145   -3.7125    0.0000 O   0  0  0  0  0  0  0  0  0  0  0  0
    0.0000   -4.1250    0.0000 C   0  0  0  0  0  0  0  0  0  0  0  0
    0.0000   -4.9500    0.0000 C   0  0  0  0  0  0  0  0  0  0  0  0
   -0.7145   -5.3625    0.0000 N   0  0  0  0  0  0  0  0  0  0  0  0
   -0.7145   -6.1875    0.0000 C   0  0  0  0  0  0  0  0  0  0  0  0
   -1.4289   -6.6000    0.0000 C   0  0  0  0  0  0  0  0  0  0  0  0
   -2.1434   -6.1875    0.0000 N   0  0  0  0  0  0  0  0  0  0  0  0
   -2.8579   -6.6000    0.0000 C   0  0  0  0  0  0  0  0  0  0  0  0
   -3.5724   -6.1875    0.0000 C   0  0  0  0  0  0  0  0  0  0  0  0
   -4.2868   -6.6000    0.0000 O   0  0  0  0  0  0  0  0  0  0  0  0
   -5.0013   -6.1875    0.0000 C   0  0  0  0  0  0  0  0  0  0  0  0
   -5.0013   -5.3625    0.0000 O   0  0  0  0  0  0  0  0  0  0  0  0
   -5.7158   -6.6000    0.0000 C   0  0  3  0  0  0  0  0  0  0  0  0
   -5.7158   -7.4250    0.0000 C   0  0  0  0  0  0  0  0  0  0  0  0
   -6.4302   -6.1875    0.0000 C   0  0  0  0  0  0  0  0  0  0  0  0
   -7.1447   -6.6000    0.0000 C   0  0  0  0  0  0  0  0  0  0  0  0
   -7.8592   -6.1875    0.0000 C   0  0  0  0  0  0  0  0  0  0  0  0
   -7.8592   -5.3625    0.0000 C   0  0  0  0  0  0  0  0  0  0  0  0
   -7.1447   -4.9500    0.0000 C   0  0  0  0  0  0  0  0  0  0  0  0
   -7.1447   -4.1250    0.0000 C   0  0  0  0  0  0  0  0  0  0  0  0
   -6.4302   -3.7125    0.0000 C   0  0  0  0  0  0  0  0  0  0  0  0
   -5.7158   -4.1250    0.0000 C   0  0  0  0  0  0  0  0  0  0  0  0
   -5.7158   -4.9500    0.0000 C   0  0  0  0  0  0  0  0  0  0  0  0
   -6.4302   -5.3625    0.0000 C   0  0  0  0  0  0  0  0  0  0  0  0
   -2.1434   -5.3625    0.0000 C   0  0  0  0  0  0  0  0  0  0  0  0
   -1.4289   -4.9500    0.0000 C   0  0  0  0  0  0  0  0  0  0  0  0
    1.4289   -1.6500    0.0000 C   0  0  0  0  0  0  0  0  0  0  0  0
    0.7145   -1.2375    0.0000 C   0  0  0  0  0  0  0  0  0  0  0  0
    0.7145   -0.4125    0.0000 C   0  0  0  0  0  0  0  0  0  0  0  0
    1.4289    0.0000    0.0000 C   0  0  0  0  0  0  0  0  0  0  0  0
    2.1434   -0.4125    0.0000 C   0  0  0  0  0  0  0  0  0  0  0  0
    2.8579    0.0000    0.0000 C   0  0  0  0  0  0  0  0  0  0  0  0
    3.5724   -0.4125    0.0000 C   0  0  0  0  0  0  0  0  0  0  0  0
    3.5724   -1.2375    0.0000 C   0  0  0  0  0  0  0  0  0  0  0  0
    2.8579   -1.6500    0.0000 C   0  0  0  0  0  0  0  0  0  0  0  0
    2.1434   -1.2375    0.0000 C   0  0  0  0  0  0  0  0  0  0  0  0
  1  2  1  0  0  0  0
  2  3  1  0  0  0  0
  2 31  1  0  0  0  0
  3  4  2  0  0  0  0
  3  5  1  0  0  0  0
  5  6  1  0  0  0  0
  6  7  1  0  0  0  0
  7  8  1  0  0  0  0
  8  9  1  0  0  0  0
  8 30  1  0  0  0  0
  9 10  1  0  0  0  0
 10 11  1  0  0  0  0
 11 12  1  0  0  0  0
 11 29  1  0  0  0  0
 12 13  1  0  0  0  0
 13 14  1  0  0  0  0
 14 15  1  0  0  0  0
 15 16  2  0  0  0  0
 15 17  1  0  0  0  0
 17 18  1  0  0  0  0
 17 19  1  0  0  0  0
 19 20  2  0  0  0  0
 19 28  1  0  0  0  0
 20 21  1  0  0  0  0
 21 22  2  0  0  0  0
 22 23  1  0  0  0  0
 23 24  2  0  0  0  0
 23 28  1  0  0  0  0
 24 25  1  0  0  0  0
 25 26  2  0  0  0  0
 26 27  1  0  0  0  0
 27 28  2  0  0  0  0
 29 30  1  0  0  0  0
 31 32  2  0  0  0  0
 31 40  1  0  0  0  0
 32 33  1  0  0  0  0
 33 34  2  0  0  0  0
 34 35  1  0  0  0  0
 35 36  2  0  0  0  0
 35 40  1  0  0  0  0
 36 37  1  0  0  0  0
 37 38  2  0  0  0  0
 38 39  1  0  0  0  0
 39 40  2  0  0  0  0
M  END
$$$$

 OpenBabel12191814062D

 33 35  0  0  0  0  0  0  0  0999 V2000
   -0.7796   -1.3800    0.0000 C   0  0  0  0  0  0  0  0  0  0  0  0
    0.0000   -1.6500    0.0000 C   0  0  0  0  0  0  0  0  0  0  0  0
    0.7796   -1.9200    0.0000 C   0  0  0  0  0  0  0  0  0  0  0  0
   -0.2700   -2.4296    0.0000 C   0  0  0  0  0  0  0  0  0  0  0  0
    0.2700   -0.8704    0.0000 C   0  0  3  0  0  0  0  0  0  0  0  0
    1.0802   -0.7145    0.0000 N   0  0  0  0  0  0  0  0  0  0  0  0
    1.6203   -1.3382    0.0000 C   0  0  0  0  0  0  0  0  0  0  0  0
    2.4304   -1.1823    0.0000 C   0  0  3  0  0  0  0  0  0  0  0  0
    2.7004   -0.4027    0.0000 O   0  0  0  0  0  0  0  0  0  0  0  0
    2.9705   -1.8059    0.0000 C   0  0  0  0  0  0  0  0  0  0  0  0
    3.7806   -1.6500    0.0000 O   0  0  0  0  0  0  0  0  0  0  0  0
    4.3207   -2.2736    0.0000 C   0  0  0  0  0  0  0  0  0  0  0  0
    5.1308   -2.1177    0.0000 C   0  0  0  0  0  0  0  0  0  0  0  0
    5.6709   -2.7414    0.0000 C   0  0  0  0  0  0  0  0  0  0  0  0
    5.4009   -3.5209    0.0000 C   0  0  0  0  0  0  0  0  0  0  0  0
    4.5908   -3.6768    0.0000 C   0  0  0  0  0  0  0  0  0  0  0  0
    4.0507   -3.0532    0.0000 C   0  0  0  0  0  0  0  0  0  0  0  0
    3.2405   -3.2091    0.0000 C   0  0  0  0  0  0  0  0  0  0  0  0
    2.7004   -2.5855    0.0000 O   0  0  0  0  0  0  0  0  0  0  0  0
    2.9705   -3.9887    0.0000 C   0  0  0  0  0  0  0  0  0  0  0  0
    2.1604   -4.1446    0.0000 C   0  0  0  0  0  0  0  0  0  0  0  0
    1.8903   -4.9241    0.0000 C   0  0  0  0  0  0  0  0  0  0  0  0
    2.4304   -5.5478    0.0000 C   0  0  0  0  0  0  0  0  0  0  0  0
    2.1604   -6.3273    0.0000 C   0  0  0  0  0  0  0  0  0  0  0  0
    1.3502   -6.4832    0.0000 C   0  0  0  0  0  0  0  0  0  0  0  0
    0.8101   -5.8596    0.0000 C   0  0  0  0  0  0  0  0  0  0  0  0
    1.0802   -5.0800    0.0000 C   0  0  0  0  0  0  0  0  0  0  0  0
   -0.2700   -0.2468    0.0000 C   0  0  0  0  0  0  0  0  0  0  0  0
   -1.0802   -0.4027    0.0000 C   0  0  0  0  0  0  0  0  0  0  0  0
   -1.6203    0.2209    0.0000 C   0  0  0  0  0  0  0  0  0  0  0  0
   -1.3502    1.0005    0.0000 C   0  0  0  0  0  0  0  0  0  0  0  0
   -0.5401    1.1564    0.0000 C   0  0  0  0  0  0  0  0  0  0  0  0
    0.0000    0.5327    0.0000 C   0  0  0  0  0  0  0  0  0  0  0  0
  1  2  1  0  0  0  0
  2  3  1  0  0  0  0
  2  4  1  0  0  0  0
  2  5  1  0  0  0  0
  5  6  1  0  0  0  0
  5 28  1  0  0  0  0
  6  7  1  0  0  0  0
  7  8  1  0  0  0  0
  8  9  1  0  0  0  0
  8 10  1  0  0  0  0
 10 11  1  0  0  0  0
 11 12  1  0  0  0  0
 12 13  2  0  0  0  0
 12 17  1  0  0  0  0
 13 14  1  0  0  0  0
 14 15  2  0  0  0  0
 15 16  1  0  0  0  0
 16 17  2  0  0  0  0
 17 18  1  0  0  0  0
 18 19  2  0  0  0  0
 18 20  1  0  0  0  0
 20 21  1  0  0  0  0
 21 22  1  0  0  0  0
 22 23  2  0  0  0  0
 22 27  1  0  0  0  0
 23 24  1  0  0  0  0
 24 25  2  0  0  0  0
 25 26  1  0  0  0  0
 26 27  2  0  0  0  0
 28 29  2  0  0  0  0
 28 33  1  0  0  0  0
 29 30  1  0  0  0  0
 30 31  2  0  0  0  0
 31 32  1  0  0  0  0
 32 33  2  0  0  0  0
M  END
$$$$

 OpenBabel12191814062D

 27 28  0  0  0  0  0  0  0  0999 V2000
    0.7145   -2.0625    0.0000 C   0  0  0  0  0  0  0  0  0  0  0  0
    0.7145   -1.2375    0.0000 C   0  0  0  0  0  0  0  0  0  0  0  0
    1.5395   -1.2375    0.0000 C   0  0  0  0  0  0  0  0  0  0  0  0
   -0.1105   -1.2375    0.0000 C   0  0  0  0  0  0  0  0  0  0  0  0
    0.7145   -0.4125    0.0000 C   0  0  0  0  0  0  0  0  0  0  0  0
    0.0000   -0.0000    0.0000 C   0  0  0  0  0  0  0  0  0  0  0  0
    0.0000    0.8250    0.0000 C   0  0  0  0  0  0  0  0  0  0  0  0
   -0.7145    1.2375    0.0000 C   0  0  0  0  0  0  0  0  0  0  0  0
   -1.4289    0.8250    0.0000 C   0  0  0  0  0  0  0  0  0  0  0  0
   -2.1434    1.2375    0.0000 C   0  0  0  0  0  0  0  0  0  0  0  0
   -2.8579    1.6500    0.0000 N   0  0  0  0  0  0  0  0  0  0  0  0
   -1.4289    0.0000    0.0000 C   0  0  0  0  0  0  0  0  0  0  0  0
   -0.7615   -0.4849    0.0000 N   0  0  0  0  0  0  0  0  0  0  0  0
   -1.0164   -1.2695    0.0000 N   0  0  0  0  0  0  0  0  0  0  0  0
   -1.8414   -1.2695    0.0000 C   0  0  0  0  0  0  0  0  0  0  0  0
   -2.3264   -1.9370    0.0000 N   0  0  0  0  0  0  0  0  0  0  0  0
   -2.0964   -0.4849    0.0000 C   0  0  0  0  0  0  0  0  0  0  0  0
   -2.8810   -0.2300    0.0000 C   0  0  0  0  0  0  0  0  0  0  0  0
   -3.6656    0.0250    0.0000 N   0  0  0  0  0  0  0  0  0  0  0  0
    0.7145    1.2375    0.0000 C   0  0  0  0  0  0  0  0  0  0  0  0
    1.4289    0.8250    0.0000 C   0  0  0  0  0  0  0  0  0  0  0  0
    1.4289   -0.0000    0.0000 C   0  0  0  0  0  0  0  0  0  0  0  0
    2.1434   -0.4125    0.0000 O   0  0  0  0  0  0  0  0  0  0  0  0
    2.1434    1.2375    0.0000 C   0  0  0  0  0  0  0  0  0  0  0  0
    2.8579    1.6500    0.0000 C   0  0  0  0  0  0  0  0  0  0  0  0
    2.5559    0.5230    0.0000 C   0  0  0  0  0  0  0  0  0  0  0  0
    1.7309    1.9520    0.0000 C   0  0  0  0  0  0  0  0  0  0  0  0
  1  2  1  0  0  0  0
  2  3  1  0  0  0  0
  2  4  1  0  0  0  0
  2  5  1  0  0  0  0
  5  6  2  0  0  0  0
  5 22  1  0  0  0  0
  6  7  1  0  0  0  0
  7  8  1  0  0  0  0
  7 20  2  0  0  0  0
  8  9  2  0  0  0  0
  9 10  1  0  0  0  0
  9 12  1  0  0  0  0
 10 11  3  0  0  0  0
 12 13  1  0  0  0  0
 12 17  2  0  0  0  0
 13 14  1  0  0  0  0
 14 15  2  0  0  0  0
 15 16  1  0  0  0  0
 15 17  1  0  0  0  0
 17 18  1  0  0  0  0
 18 19  3  0  0  0  0
 20 21  1  0  0  0  0
 21 22  2  0  0  0  0
 21 24  1  0  0  0  0
 22 23  1  0  0  0  0
 24 25  1  0  0  0  0
 24 26  1  0  0  0  0
 24 27  1  0  0  0  0
M  END
$$$$

 OpenBabel12191814062D

 35 38  0  0  0  0  0  0  0  0999 V2000
   -6.4302    2.8875    0.0000 C   0  0  0  0  0  0  0  0  0  0  0  0
   -6.4302    2.0625    0.0000 C   0  0  0  0  0  0  0  0  0  0  0  0
   -7.2552    2.0625    0.0000 C   0  0  0  0  0  0  0  0  0  0  0  0
   -5.6052    2.0625    0.0000 C   0  0  0  0  0  0  0  0  0  0  0  0
   -6.4302    1.2375    0.0000 C   0  0  0  0  0  0  0  0  0  0  0  0
   -5.7158    0.8250    0.0000 C   0  0  0  0  0  0  0  0  0  0  0  0
   -5.7158   -0.0000    0.0000 C   0  0  0  0  0  0  0  0  0  0  0  0
   -6.4302   -0.4125    0.0000 C   0  0  0  0  0  0  0  0  0  0  0  0
   -7.1447   -0.0000    0.0000 C   0  0  0  0  0  0  0  0  0  0  0  0
   -7.1447    0.8250    0.0000 C   0  0  0  0  0  0  0  0  0  0  0  0
   -6.4302   -1.2375    0.0000 C   0  0  0  0  0  0  0  0  0  0  0  0
   -7.1447   -1.6500    0.0000 O   0  0  0  0  0  0  0  0  0  0  0  0
   -5.7158   -1.6500    0.0000 C   0  0  0  0  0  0  0  0  0  0  0  0
   -5.7158   -2.4750    0.0000 C   0  0  0  0  0  0  0  0  0  0  0  0
   -5.0013   -2.8875    0.0000 C   0  0  0  0  0  0  0  0  0  0  0  0
   -5.0013   -3.7125    0.0000 N   0  0  0  0  0  0  0  0  0  0  0  0
   -4.2868   -4.1250    0.0000 C   0  0  0  0  0  0  0  0  0  0  0  0
   -4.2868   -4.9500    0.0000 C   0  0  0  0  0  0  0  0  0  0  0  0
   -5.0013   -5.3625    0.0000 C   0  0  0  0  0  0  0  0  0  0  0  0
   -5.7158   -4.9500    0.0000 C   0  0  0  0  0  0  0  0  0  0  0  0
   -5.7158   -4.1250    0.0000 C   0  0  0  0  0  0  0  0  0  0  0  0
   -5.0013   -6.1875    0.0000 O   0  0  0  0  0  0  0  0  0  0  0  0
   -4.2868   -6.6000    0.0000 C   0  0  0  0  0  0  0  0  0  0  0  0
   -4.2868   -7.4250    0.0000 C   0  0  0  0  0  0  0  0  0  0  0  0
   -3.5724   -7.8375    0.0000 C   0  0  0  0  0  0  0  0  0  0  0  0
   -3.5724   -8.6625    0.0000 C   0  0  0  0  0  0  0  0  0  0  0  0
   -4.2868   -9.0750    0.0000 C   0  0  0  0  0  0  0  0  0  0  0  0
   -5.0013   -8.6625    0.0000 C   0  0  0  0  0  0  0  0  0  0  0  0
   -5.0013   -7.8375    0.0000 C   0  0  0  0  0  0  0  0  0  0  0  0
   -3.5724   -6.1875    0.0000 C   0  0  0  0  0  0  0  0  0  0  0  0
   -3.5724   -5.3625    0.0000 C   0  0  0  0  0  0  0  0  0  0  0  0
   -2.8579   -4.9500    0.0000 C   0  0  0  0  0  0  0  0  0  0  0  0
   -2.1434   -5.3625    0.0000 C   0  0  0  0  0  0  0  0  0  0  0  0
   -2.1434   -6.1875    0.0000 C   0  0  0  0  0  0  0  0  0  0  0  0
   -2.8579   -6.6000    0.0000 C   0  0  0  0  0  0  0  0  0  0  0  0
  1  2  1  0  0  0  0
  2  3  1  0  0  0  0
  2  4  1  0  0  0  0
  2  5  1  0  0  0  0
  5  6  2  0  0  0  0
  5 10  1  0  0  0  0
  6  7  1  0  0  0  0
  7  8  2  0  0  0  0
  8  9  1  0  0  0  0
  8 11  1  0  0  0  0
  9 10  2  0  0  0  0
 11 12  2  0  0  0  0
 11 13  1  0  0  0  0
 13 14  1  0  0  0  0
 14 15  1  0  0  0  0
 15 16  1  0  0  0  0
 16 17  1  0  0  0  0
 16 21  1  0  0  0  0
 17 18  1  0  0  0  0
 18 19  1  0  0  0  0
 19 20  1  0  0  0  0
 19 22  1  0  0  0  0
 20 21  1  0  0  0  0
 22 23  1  0  0  0  0
 23 24  1  0  0  0  0
 23 30  1  0  0  0  0
 24 25  2  0  0  0  0
 24 29  1  0  0  0  0
 25 26  1  0  0  0  0
 26 27  2  0  0  0  0
 27 28  1  0  0  0  0
 28 29  2  0  0  0  0
 30 31  2  0  0  0  0
 30 35  1  0  0  0  0
 31 32  1  0  0  0  0
 32 33  2  0  0  0  0
 33 34  1  0  0  0  0
 34 35  2  0  0  0  0
M  END
$$$$

 OpenBabel12191814062D

 35 38  0  0  0  0  0  0  0  0999 V2000
   -5.8855   -0.1914    0.0000 C   0  0  0  0  0  0  0  0  0  0  0  0
   -5.8855   -1.0164    0.0000 C   0  0  0  0  0  0  0  0  0  0  0  0
   -6.7105   -1.0164    0.0000 C   0  0  0  0  0  0  0  0  0  0  0  0
   -5.0605   -1.0164    0.0000 C   0  0  0  0  0  0  0  0  0  0  0  0
   -5.8855   -1.8414    0.0000 C   0  0  0  0  0  0  0  0  0  0  0  0
   -5.1711   -2.2539    0.0000 C   0  0  0  0  0  0  0  0  0  0  0  0
   -5.1711   -3.0789    0.0000 C   0  0  0  0  0  0  0  0  0  0  0  0
   -5.8855   -3.4914    0.0000 C   0  0  0  0  0  0  0  0  0  0  0  0
   -6.6000   -3.0789    0.0000 C   0  0  0  0  0  0  0  0  0  0  0  0
   -6.6000   -2.2539    0.0000 C   0  0  0  0  0  0  0  0  0  0  0  0
   -5.8855   -4.3164    0.0000 C   0  0  3  0  0  0  0  0  0  0  0  0
   -6.6000   -4.7289    0.0000 O   0  0  0  0  0  0  0  0  0  0  0  0
   -5.1711   -4.7289    0.0000 C   0  0  0  0  0  0  0  0  0  0  0  0
   -5.1711   -5.5539    0.0000 C   0  0  0  0  0  0  0  0  0  0  0  0
   -4.4566   -5.9664    0.0000 C   0  0  0  0  0  0  0  0  0  0  0  0
   -4.4566   -6.7914    0.0000 N   0  0  0  0  0  0  0  0  0  0  0  0
   -3.7421   -7.2039    0.0000 C   0  0  0  0  0  0  0  0  0  0  0  0
   -3.7421   -8.0289    0.0000 C   0  0  0  0  0  0  0  0  0  0  0  0
   -4.4566   -8.4414    0.0000 C   0  0  3  0  0  0  0  0  0  0  0  0
   -5.1711   -8.0289    0.0000 C   0  0  0  0  0  0  0  0  0  0  0  0
   -5.1711   -7.2039    0.0000 C   0  0  0  0  0  0  0  0  0  0  0  0
   -4.4566   -9.2664    0.0000 C   0  0  0  0  0  0  0  0  0  0  0  0
   -5.2816   -9.2664    0.0000 O   0  0  0  0  0  0  0  0  0  0  0  0
   -4.4566  -10.0914    0.0000 C   0  0  0  0  0  0  0  0  0  0  0  0
   -3.7421  -10.5039    0.0000 C   0  0  0  0  0  0  0  0  0  0  0  0
   -3.7421  -11.3289    0.0000 C   0  0  0  0  0  0  0  0  0  0  0  0
   -4.4566  -11.7414    0.0000 C   0  0  0  0  0  0  0  0  0  0  0  0
   -5.1711  -11.3289    0.0000 C   0  0  0  0  0  0  0  0  0  0  0  0
   -5.1711  -10.5039    0.0000 C   0  0  0  0  0  0  0  0  0  0  0  0
   -3.6316   -9.2664    0.0000 C   0  0  0  0  0  0  0  0  0  0  0  0
   -3.2191   -8.5520    0.0000 C   0  0  0  0  0  0  0  0  0  0  0  0
   -2.3941   -8.5520    0.0000 C   0  0  0  0  0  0  0  0  0  0  0  0
   -1.9816   -9.2664    0.0000 C   0  0  0  0  0  0  0  0  0  0  0  0
   -2.3941   -9.9809    0.0000 C   0  0  0  0  0  0  0  0  0  0  0  0
   -3.2191   -9.9809    0.0000 C   0  0  0  0  0  0  0  0  0  0  0  0
  1  2  1  0  0  0  0
  2  3  1  0  0  0  0
  2  4  1  0  0  0  0
  2  5  1  0  0  0  0
  5  6  2  0  0  0  0
  5 10  1  0  0  0  0
  6  7  1  0  0  0  0
  7  8  2  0  0  0  0
  8  9  1  0  0  0  0
  8 11  1  0  0  0  0
  9 10  2  0  0  0  0
 11 12  1  0  0  0  0
 11 13  1  0  0  0  0
 13 14  1  0  0  0  0
 14 15  1  0  0  0  0
 15 16  1  0  0  0  0
 16 17  1  0  0  0  0
 16 21  1  0  0  0  0
 17 18  1  0  0  0  0
 18 19  1  0  0  0  0
 19 20  1  0  0  0  0
 19 22  1  0  0  0  0
 20 21  1  0  0  0  0
 22 23  1  0  0  0  0
 22 24  1  0  0  0  0
 22 30  1  0  0  0  0
 24 25  2  0  0  0  0
 24 29  1  0  0  0  0
 25 26  1  0  0  0  0
 26 27  2  0  0  0  0
 27 28  1  0  0  0  0
 28 29  2  0  0  0  0
 30 31  2  0  0  0  0
 30 35  1  0  0  0  0
 31 32  1  0  0  0  0
 32 33  2  0  0  0  0
 33 34  1  0  0  0  0
 34 35  2  0  0  0  0
M  END
$$$$

 OpenBabel12191814062D

 30 34  0  0  0  0  0  0  0  0999 V2000
    4.2135   -8.1229    0.0000 C   0  0  0  0  0  0  0  0  0  0  0  0
    4.2135   -7.2979    0.0000 C   0  0  0  0  0  0  0  0  0  0  0  0
    5.0385   -7.2979    0.0000 C   0  0  0  0  0  0  0  0  0  0  0  0
    3.3885   -7.2979    0.0000 C   0  0  0  0  0  0  0  0  0  0  0  0
    4.2135   -6.4729    0.0000 C   0  0  0  0  0  0  0  0  0  0  0  0
    3.4990   -6.0604    0.0000 C   0  0  0  0  0  0  0  0  0  0  0  0
    3.4990   -5.2354    0.0000 C   0  0  0  0  0  0  0  0  0  0  0  0
    4.2135   -4.8229    0.0000 C   0  0  0  0  0  0  0  0  0  0  0  0
    4.9279   -5.2354    0.0000 C   0  0  0  0  0  0  0  0  0  0  0  0
    4.9279   -6.0604    0.0000 C   0  0  0  0  0  0  0  0  0  0  0  0
    4.2135   -3.9979    0.0000 N   0  0  0  0  0  0  0  0  0  0  0  0
    3.4990   -3.5854    0.0000 C   0  0  3  0  0  0  0  0  0  0  0  0
    3.4990   -2.7604    0.0000 N   0  0  0  0  0  0  0  0  0  0  0  0
    4.2135   -2.3479    0.0000 C   0  0  0  0  0  0  0  0  0  0  0  0
    4.2135   -1.5229    0.0000 C   0  0  0  0  0  0  0  0  0  0  0  0
    4.9279   -1.1104    0.0000 C   0  0  0  0  0  0  0  0  0  0  0  0
    5.6424   -1.5229    0.0000 C   0  0  0  0  0  0  0  0  0  0  0  0
    5.6424   -2.3479    0.0000 C   0  0  0  0  0  0  0  0  0  0  0  0
    4.9279   -2.7604    0.0000 C   0  0  0  0  0  0  0  0  0  0  0  0
    4.9279   -3.5854    0.0000 C   0  0  0  0  0  0  0  0  0  0  0  0
    5.6424   -3.9979    0.0000 O   0  0  0  0  0  0  0  0  0  0  0  0
    2.7845   -3.9979    0.0000 C   0  0  0  0  0  0  0  0  0  0  0  0
    2.7845   -4.8229    0.0000 C   0  0  0  0  0  0  0  0  0  0  0  0
    2.0701   -5.2354    0.0000 C   0  0  0  0  0  0  0  0  0  0  0  0
    1.3556   -4.8229    0.0000 C   0  0  0  0  0  0  0  0  0  0  0  0
    0.5710   -5.0779    0.0000 O   0  0  0  0  0  0  0  0  0  0  0  0
    0.0860   -4.4104    0.0000 C   0  0  0  0  0  0  0  0  0  0  0  0
    0.5710   -3.7430    0.0000 O   0  0  0  0  0  0  0  0  0  0  0  0
    1.3556   -3.9979    0.0000 C   0  0  0  0  0  0  0  0  0  0  0  0
    2.0701   -3.5854    0.0000 C   0  0  0  0  0  0  0  0  0  0  0  0
  1  2  1  0  0  0  0
  2  3  1  0  0  0  0
  2  4  1  0  0  0  0
  2  5  1  0  0  0  0
  5  6  2  0  0  0  0
  5 10  1  0  0  0  0
  6  7  1  0  0  0  0
  7  8  2  0  0  0  0
  8  9  1  0  0  0  0
  8 11  1  0  0  0  0
  9 10  2  0  0  0  0
 11 12  1  0  0  0  0
 11 20  1  0  0  0  0
 12 13  1  0  0  0  0
 12 22  1  0  0  0  0
 13 14  1  0  0  0  0
 14 15  2  0  0  0  0
 14 19  1  0  0  0  0
 15 16  1  0  0  0  0
 16 17  2  0  0  0  0
 17 18  1  0  0  0  0
 18 19  2  0  0  0  0
 19 20  1  0  0  0  0
 20 21  2  0  0  0  0
 22 23  2  0  0  0  0
 22 30  1  0  0  0  0
 23 24  1  0  0  0  0
 24 25  2  0  0  0  0
 25 26  1  0  0  0  0
 25 29  1  0  0  0  0
 26 27  1  0  0  0  0
 27 28  1  0  0  0  0
 28 29  1  0  0  0  0
 29 30  2  0  0  0  0
M  END
$$$$

 OpenBabel12191814062D

 31 34  0  0  0  0  0  0  0  0999 V2000
    5.0013    0.4125    0.0000 C   0  0  0  0  0  0  0  0  0  0  0  0
    5.0013   -0.4125    0.0000 C   0  0  0  0  0  0  0  0  0  0  0  0
    4.1763   -0.4125    0.0000 C   0  0  0  0  0  0  0  0  0  0  0  0
    5.8263   -0.4125    0.0000 C   0  0  0  0  0  0  0  0  0  0  0  0
    5.0013   -1.2375    0.0000 C   0  0  0  0  0  0  0  0  0  0  0  0
    5.7158   -1.6500    0.0000 C   0  0  0  0  0  0  0  0  0  0  0  0
    5.7158   -2.4750    0.0000 C   0  0  0  0  0  0  0  0  0  0  0  0
    5.0013   -2.8875    0.0000 C   0  0  0  0  0  0  0  0  0  0  0  0
    5.0013   -3.7125    0.0000 C   0  0  0  0  0  0  0  0  0  0  0  0
    4.2868   -4.1250    0.0000 N   0  0  0  0  0  0  0  0  0  0  0  0
    4.2868   -4.9500    0.0000 C   0  0  0  0  0  0  0  0  0  0  0  0
    3.5724   -5.3625    0.0000 C   0  0  0  0  0  0  0  0  0  0  0  0
    2.8579   -4.9500    0.0000 N   0  0  0  0  0  0  0  0  0  0  0  0
    2.8579   -4.1250    0.0000 C   0  0  0  0  0  0  0  0  0  0  0  0
    3.5724   -3.7125    0.0000 C   0  0  0  0  0  0  0  0  0  0  0  0
    2.1434   -5.3625    0.0000 C   0  0  3  0  0  0  0  0  0  0  0  0
    2.1434   -6.1875    0.0000 C   0  0  0  0  0  0  0  0  0  0  0  0
    2.8579   -6.6000    0.0000 C   0  0  0  0  0  0  0  0  0  0  0  0
    2.8579   -7.4250    0.0000 C   0  0  0  0  0  0  0  0  0  0  0  0
    2.1434   -7.8375    0.0000 C   0  0  0  0  0  0  0  0  0  0  0  0
    1.4289   -7.4250    0.0000 C   0  0  0  0  0  0  0  0  0  0  0  0
    1.4289   -6.6000    0.0000 C   0  0  0  0  0  0  0  0  0  0  0  0
    1.4289   -4.9500    0.0000 C   0  0  0  0  0  0  0  0  0  0  0  0
    0.7145   -5.3625    0.0000 C   0  0  0  0  0  0  0  0  0  0  0  0
   -0.0000   -4.9500    0.0000 C   0  0  0  0  0  0  0  0  0  0  0  0
    0.0000   -4.1250    0.0000 C   0  0  0  0  0  0  0  0  0  0  0  0
   -0.7145   -3.7125    0.0000 Cl  0  0  0  0  0  0  0  0  0  0  0  0
    0.7145   -3.7125    0.0000 C   0  0  0  0  0  0  0  0  0  0  0  0
    1.4289   -4.1250    0.0000 C   0  0  0  0  0  0  0  0  0  0  0  0
    4.2868   -2.4750    0.0000 C   0  0  0  0  0  0  0  0  0  0  0  0
    4.2868   -1.6500    0.0000 C   0  0  0  0  0  0  0  0  0  0  0  0
  1  2  1  0  0  0  0
  2  3  1  0  0  0  0
  2  4  1  0  0  0  0
  2  5  1  0  0  0  0
  5  6  2  0  0  0  0
  5 31  1  0  0  0  0
  6  7  1  0  0  0  0
  7  8  2  0  0  0  0
  8  9  1  0  0  0  0
  8 30  1  0  0  0  0
  9 10  1  0  0  0  0
 10 11  1  0  0  0  0
 10 15  1  0  0  0  0
 11 12  1  0  0  0  0
 12 13  1  0  0  0  0
 13 14  1  0  0  0  0
 13 16  1  0  0  0  0
 14 15  1  0  0  0  0
 16 17  1  0  0  0  0
 16 23  1  0  0  0  0
 17 18  2  0  0  0  0
 17 22  1  0  0  0  0
 18 19  1  0  0  0  0
 19 20  2  0  0  0  0
 20 21  1  0  0  0  0
 21 22  2  0  0  0  0
 23 24  2  0  0  0  0
 23 29  1  0  0  0  0
 24 25  1  0  0  0  0
 25 26  2  0  0  0  0
 26 27  1  0  0  0  0
 26 28  1  0  0  0  0
 28 29  2  0  0  0  0
 30 31  2  0  0  0  0
M  END
$$$$

 OpenBabel12191814062D

 49 53  0  0  0  0  0  0  0  0999 V2000
    7.8592    1.2375    0.0000 C   0  0  0  0  0  0  0  0  0  0  0  0
    7.1447    0.8250    0.0000 C   0  0  0  0  0  0  0  0  0  0  0  0
    6.7322    1.5395    0.0000 C   0  0  0  0  0  0  0  0  0  0  0  0
    7.5572    0.1105    0.0000 C   0  0  0  0  0  0  0  0  0  0  0  0
    6.4302    0.4125    0.0000 N   0  0  0  0  0  0  0  0  0  0  0  0
    6.4302   -0.4125    0.0000 C   0  0  0  0  0  0  0  0  0  0  0  0
    7.1447   -0.8250    0.0000 O   0  0  0  0  0  0  0  0  0  0  0  0
    5.7158   -0.8250    0.0000 C   0  0  3  0  0  0  0  0  0  0  0  0
    5.0013   -0.4125    0.0000 C   0  0  0  0  0  0  0  0  0  0  0  0
    4.2868   -0.8250    0.0000 C   0  0  3  0  0  0  0  0  0  0  0  0
    3.5724   -0.4125    0.0000 C   0  0  0  0  0  0  0  0  0  0  0  0
    2.8579   -0.8250    0.0000 C   0  0  0  0  0  0  0  0  0  0  0  0
    2.8579   -1.6500    0.0000 C   0  0  0  0  0  0  0  0  0  0  0  0
    3.5724   -2.0625    0.0000 C   0  0  0  0  0  0  0  0  0  0  0  0
    4.2868   -1.6500    0.0000 C   0  0  3  0  0  0  0  0  0  0  0  0
    5.0013   -2.0625    0.0000 C   0  0  0  0  0  0  0  0  0  0  0  0
    5.7158   -1.6500    0.0000 N   0  0  0  0  0  0  0  0  0  0  0  0
    6.4302   -2.0625    0.0000 C   0  0  0  0  0  0  0  0  0  0  0  0
    7.1447   -1.6500    0.0000 C   0  0  3  0  0  0  0  0  0  0  0  0
    7.6296   -0.9826    0.0000 O   0  0  0  0  0  0  0  0  0  0  0  0
    7.8592   -2.0625    0.0000 C   0  0  3  0  0  0  0  0  0  0  0  0
    7.8592   -2.8875    0.0000 C   0  0  0  0  0  0  0  0  0  0  0  0
    7.1447   -3.3000    0.0000 C   0  0  0  0  0  0  0  0  0  0  0  0
    7.1447   -4.1250    0.0000 C   0  0  0  0  0  0  0  0  0  0  0  0
    6.4302   -4.5375    0.0000 C   0  0  0  0  0  0  0  0  0  0  0  0
    5.7158   -4.1250    0.0000 C   0  0  0  0  0  0  0  0  0  0  0  0
    5.7158   -3.3000    0.0000 C   0  0  0  0  0  0  0  0  0  0  0  0
    6.4302   -2.8875    0.0000 C   0  0  0  0  0  0  0  0  0  0  0  0
    8.5737   -1.6500    0.0000 N   0  0  0  0  0  0  0  0  0  0  0  0
    9.2881   -2.0625    0.0000 C   0  0  0  0  0  0  0  0  0  0  0  0
    9.2881   -2.8875    0.0000 O   0  0  0  0  0  0  0  0  0  0  0  0
   10.0026   -1.6500    0.0000 C   0  0  3  0  0  0  0  0  0  0  0  0
   10.0026   -0.8250    0.0000 C   0  0  0  0  0  0  0  0  0  0  0  0
    9.2881   -0.4125    0.0000 C   0  0  0  0  0  0  0  0  0  0  0  0
    8.5737   -0.8250    0.0000 N   0  0  0  0  0  0  0  0  0  0  0  0
    9.2881    0.4125    0.0000 O   0  0  0  0  0  0  0  0  0  0  0  0
   10.7171   -2.0625    0.0000 N   0  0  0  0  0  0  0  0  0  0  0  0
   11.4315   -1.6500    0.0000 C   0  0  0  0  0  0  0  0  0  0  0  0
   11.4315   -0.8250    0.0000 O   0  0  0  0  0  0  0  0  0  0  0  0
   12.1460   -2.0625    0.0000 C   0  0  0  0  0  0  0  0  0  0  0  0
   12.8605   -1.6500    0.0000 C   0  0  0  0  0  0  0  0  0  0  0  0
   13.5749   -2.0625    0.0000 C   0  0  0  0  0  0  0  0  0  0  0  0
   13.5749   -2.8875    0.0000 C   0  0  0  0  0  0  0  0  0  0  0  0
   14.2894   -3.3000    0.0000 C   0  0  0  0  0  0  0  0  0  0  0  0
   14.2894   -4.1250    0.0000 C   0  0  0  0  0  0  0  0  0  0  0  0
   13.5749   -4.5375    0.0000 C   0  0  0  0  0  0  0  0  0  0  0  0
   12.8605   -4.1250    0.0000 C   0  0  0  0  0  0  0  0  0  0  0  0
   12.8605   -3.3000    0.0000 C   0  0  0  0  0  0  0  0  0  0  0  0
   12.1460   -2.8875    0.0000 N   0  0  0  0  0  0  0  0  0  0  0  0
  1  2  1  0  0  0  0
  2  3  1  0  0  0  0
  2  4  1  0  0  0  0
  2  5  1  0  0  0  0
  5  6  1  0  0  0  0
  6  7  2  0  0  0  0
  6  8  1  0  0  0  0
  8  9  1  0  0  0  0
  8 17  1  0  0  0  0
  9 10  1  0  0  0  0
 10 11  1  0  0  0  0
 10 15  1  0  0  0  0
 11 12  1  0  0  0  0
 12 13  1  0  0  0  0
 13 14  1  0  0  0  0
 14 15  1  0  0  0  0
 15 16  1  0  0  0  0
 16 17  1  0  0  0  0
 17 18  1  0  0  0  0
 18 19  1  0  0  0  0
 19 20  1  0  0  0  0
 19 21  1  0  0  0  0
 21 22  1  0  0  0  0
 21 29  1  0  0  0  0
 22 23  1  0  0  0  0
 23 24  2  0  0  0  0
 23 28  1  0  0  0  0
 24 25  1  0  0  0  0
 25 26  2  0  0  0  0
 26 27  1  0  0  0  0
 27 28  2  0  0  0  0
 29 30  1  0  0  0  0
 30 31  2  0  0  0  0
 30 32  1  0  0  0  0
 32 33  1  0  0  0  0
 32 37  1  0  0  0  0
 33 34  1  0  0  0  0
 34 35  1  0  0  0  0
 34 36  2  0  0  0  0
 37 38  1  0  0  0  0
 38 39  2  0  0  0  0
 38 40  1  0  0  0  0
 40 41  2  0  0  0  0
 40 49  1  0  0  0  0
 41 42  1  0  0  0  0
 42 43  2  0  0  0  0
 43 44  1  0  0  0  0
 43 48  1  0  0  0  0
 44 45  2  0  0  0  0
 45 46  1  0  0  0  0
 46 47  2  0  0  0  0
 47 48  1  0  0  0  0
 48 49  2  0  0  0  0
M  END
$$$$

 OpenBabel12191814062D

 31 33  0  0  0  0  0  0  0  0999 V2000
   -0.7145   -4.5375    0.0000 C   0  0  0  0  0  0  0  0  0  0  0  0
   -0.7145   -3.7125    0.0000 C   0  0  0  0  0  0  0  0  0  0  0  0
    0.1105   -3.7125    0.0000 C   0  0  0  0  0  0  0  0  0  0  0  0
   -1.5395   -3.7125    0.0000 C   0  0  0  0  0  0  0  0  0  0  0  0
   -0.7145   -2.8875    0.0000 O   0  0  0  0  0  0  0  0  0  0  0  0
    0.0000   -2.4750    0.0000 C   0  0  0  0  0  0  0  0  0  0  0  0
    0.0000   -1.6500    0.0000 O   0  0  0  0  0  0  0  0  0  0  0  0
    0.7145   -2.8875    0.0000 C   0  0  0  0  0  0  0  0  0  0  0  0
    1.4289   -2.4750    0.0000 N   0  0  0  0  0  0  0  0  0  0  0  0
    2.1434   -2.8875    0.0000 C   0  0  0  0  0  0  0  0  0  0  0  0
    2.1434   -3.7125    0.0000 C   0  0  0  0  0  0  0  0  0  0  0  0
    2.8579   -4.1250    0.0000 C   0  0  0  0  0  0  0  0  0  0  0  0
    2.8579   -4.9500    0.0000 C   0  0  0  0  0  0  0  0  0  0  0  0
    2.1434   -5.3625    0.0000 C   0  0  0  0  0  0  0  0  0  0  0  0
    1.4289   -4.9500    0.0000 C   0  0  0  0  0  0  0  0  0  0  0  0
    1.4289   -4.1250    0.0000 C   0  0  0  0  0  0  0  0  0  0  0  0
    1.4289   -1.6500    0.0000 C   0  0  3  0  0  0  0  0  0  0  0  0
    0.7145   -1.2375    0.0000 C   0  0  3  0  0  0  0  0  0  0  0  0
   -0.1060   -1.1513    0.0000 O   0  0  0  0  0  0  0  0  0  0  0  0
    0.7145   -0.4125    0.0000 C   0  0  0  0  0  0  0  0  0  0  0  0
   -0.0980   -0.5558    0.0000 C   0  0  0  0  0  0  0  0  0  0  0  0
    0.4323    0.3627    0.0000 C   0  0  0  0  0  0  0  0  0  0  0  0
    1.4289    0.0000    0.0000 O   0  0  0  0  0  0  0  0  0  0  0  0
    2.1434   -0.4125    0.0000 C   0  0  0  0  0  0  0  0  0  0  0  0
    2.8579    0.0000    0.0000 C   0  0  0  0  0  0  0  0  0  0  0  0
    3.5724   -0.4125    0.0000 C   0  0  0  0  0  0  0  0  0  0  0  0
    3.5724   -1.2375    0.0000 C   0  0  0  0  0  0  0  0  0  0  0  0
    2.8579   -1.6500    0.0000 C   0  0  0  0  0  0  0  0  0  0  0  0
    2.1434   -1.2375    0.0000 C   0  0  0  0  0  0  0  0  0  0  0  0
    4.2868   -1.6500    0.0000 C   0  0  0  0  0  0  0  0  0  0  0  0
    5.0013   -2.0625    0.0000 N   0  0  0  0  0  0  0  0  0  0  0  0
  1  2  1  0  0  0  0
  2  3  1  0  0  0  0
  2  4  1  0  0  0  0
  2  5  1  0  0  0  0
  5  6  1  0  0  0  0
  6  7  2  0  0  0  0
  6  8  1  0  0  0  0
  8  9  1  0  0  0  0
  9 10  1  0  0  0  0
  9 17  1  0  0  0  0
 10 11  1  0  0  0  0
 11 12  2  0  0  0  0
 11 16  1  0  0  0  0
 12 13  1  0  0  0  0
 13 14  2  0  0  0  0
 14 15  1  0  0  0  0
 15 16  2  0  0  0  0
 17 18  1  0  0  0  0
 17 29  1  0  0  0  0
 18 19  1  0  0  0  0
 18 20  1  0  0  0  0
 20 21  1  0  0  0  0
 20 22  1  0  0  0  0
 20 23  1  0  0  0  0
 23 24  1  0  0  0  0
 24 25  2  0  0  0  0
 24 29  1  0  0  0  0
 25 26  1  0  0  0  0
 26 27  2  0  0  0  0
 27 28  1  0  0  0  0
 27 30  1  0  0  0  0
 28 29  2  0  0  0  0
 30 31  3  0  0  0  0
M  END
$$$$

 OpenBabel12191814062D

 42 48  0  0  0  0  0  0  0  0999 V2000
    1.4228   -2.5047    0.0000 C   0  0  0  0  0  0  0  0  0  0  0  0
    0.9567   -1.7414    0.0000 C   0  0  0  0  0  0  0  0  0  0  0  0
    1.9463   -1.6186    0.0000 C   0  0  0  0  0  0  0  0  0  0  0  0
    0.0873   -2.0028    0.0000 C   0  0  0  0  0  0  0  0  0  0  0  0
    0.4908   -1.0279    0.0000 O   0  0  0  0  0  0  0  0  0  0  0  0
    0.1409   -0.1573    0.0000 C   0  0  0  0  0  0  0  0  0  0  0  0
   -0.4476    0.5190    0.0000 O   0  0  0  0  0  0  0  0  0  0  0  0
    1.0862    0.2579    0.0000 N   0  0  0  0  0  0  0  0  0  0  0  0
    2.0147    0.1616    0.0000 C   0  0  3  0  0  0  0  0  0  0  0  0
    2.3243   -0.5235    0.0000 C   0  0  3  0  0  0  0  0  0  0  0  0
    2.9062   -0.2486    0.0000 C   0  0  3  0  0  0  0  0  0  0  0  0
    2.4137   -0.9894    0.0000 N   0  0  0  0  0  0  0  0  0  0  0  0
    1.5450   -0.1748    0.0000 C   0  0  3  0  0  0  0  0  0  0  0  0
    1.0412    0.7653    0.0000 C   0  0  3  0  0  0  0  0  0  0  0  0
    0.5306    0.0955    0.0000 C   0  0  3  0  0  0  0  0  0  0  0  0
    0.9112   -0.6811    0.0000 C   0  0  3  0  0  0  0  0  0  0  0  0
   -0.1308   -0.8282    0.0000 C   0  0  0  0  0  0  0  0  0  0  0  0
   -0.9927   -0.5471    0.0000 O   0  0  0  0  0  0  0  0  0  0  0  0
    1.5762   -1.1674    0.0000 C   0  0  3  0  0  0  0  0  0  0  0  0
    1.6089   -1.9917    0.0000 C   0  0  0  0  0  0  0  0  0  0  0  0
    2.3392   -2.3756    0.0000 C   0  0  0  0  0  0  0  0  0  0  0  0
    2.3719   -3.1999    0.0000 C   0  0  0  0  0  0  0  0  0  0  0  0
    1.6744   -3.6404    0.0000 C   0  0  0  0  0  0  0  0  0  0  0  0
    0.9441   -3.2566    0.0000 C   0  0  0  0  0  0  0  0  0  0  0  0
    0.9114   -2.4322    0.0000 C   0  0  0  0  0  0  0  0  0  0  0  0
    1.8887    1.1922    0.0000 C   0  0  3  0  0  0  0  0  0  0  0  0
    1.9951    2.0103    0.0000 C   0  0  0  0  0  0  0  0  0  0  0  0
    1.3398    2.5115    0.0000 C   0  0  0  0  0  0  0  0  0  0  0  0
    1.4462    3.3296    0.0000 C   0  0  0  0  0  0  0  0  0  0  0  0
    2.2079    3.6465    0.0000 C   0  0  0  0  0  0  0  0  0  0  0  0
    2.8632    3.1453    0.0000 C   0  0  0  0  0  0  0  0  0  0  0  0
    2.7568    2.3272    0.0000 C   0  0  0  0  0  0  0  0  0  0  0  0
    2.5395    0.6153    0.0000 C   0  0  3  0  0  0  0  0  0  0  0  0
    3.4142    0.7671    0.0000 C   0  0  0  0  0  0  0  0  0  0  0  0
    4.2402    0.5393    0.0000 O   0  0  0  0  0  0  0  0  0  0  0  0
    3.4257   -1.3151    0.0000 C   0  0  0  0  0  0  0  0  0  0  0  0
    3.6941   -2.1487    0.0000 O   0  0  0  0  0  0  0  0  0  0  0  0
    4.3732   -1.5938    0.0000 O   0  0  0  0  0  0  0  0  0  0  0  0
    5.2529   -1.9635    0.0000 C   0  0  0  0  0  0  0  0  0  0  0  0
    6.1354   -1.9982    0.0000 C   0  0  0  0  0  0  0  0  0  0  0  0
    5.5128   -2.8295    0.0000 C   0  0  0  0  0  0  0  0  0  0  0  0
    5.4517   -1.1551    0.0000 C   0  0  0  0  0  0  0  0  0  0  0  0
  1  2  1  0  0  0  0
  2  3  1  0  0  0  0
  2  4  1  0  0  0  0
  2  5  1  0  0  0  0
  5  6  1  0  0  0  0
  6  7  2  0  0  0  0
  6  8  1  0  0  0  0
  8  9  1  0  0  0  0
  8 15  1  0  0  0  0
  9 10  1  0  0  0  0
  9 33  1  0  0  0  0
 10 11  1  0  0  0  0
 10 19  1  0  0  0  0
 11 12  1  0  0  0  0
 11 33  1  0  0  0  0
 12 13  1  0  0  0  0
 12 36  1  0  0  0  0
 13 14  1  0  0  0  0
 13 16  1  0  0  0  0
 14 15  1  0  0  0  0
 14 26  1  0  0  0  0
 15 16  1  0  0  0  0
 16 17  1  0  0  0  0
 16 19  1  0  0  0  0
 17 18  1  0  0  0  0
 19 20  1  0  0  0  0
 20 21  2  0  0  0  0
 20 25  1  0  0  0  0
 21 22  1  0  0  0  0
 22 23  2  0  0  0  0
 23 24  1  0  0  0  0
 24 25  2  0  0  0  0
 26 27  1  0  0  0  0
 26 33  1  0  0  0  0
 27 28  2  0  0  0  0
 27 32  1  0  0  0  0
 28 29  1  0  0  0  0
 29 30  2  0  0  0  0
 30 31  1  0  0  0  0
 31 32  2  0  0  0  0
 33 34  1  0  0  0  0
 34 35  1  0  0  0  0
 36 37  2  0  0  0  0
 36 38  1  0  0  0  0
 38 39  1  0  0  0  0
 39 40  1  0  0  0  0
 39 41  1  0  0  0  0
 39 42  1  0  0  0  0
M  END
$$$$

 OpenBabel12191814062D

 46 47  0  0  0  0  0  0  0  0999 V2000
   10.7171  -11.9625    0.0000 C   0  0  0  0  0  0  0  0  0  0  0  0
   10.0026  -11.5500    0.0000 C   0  0  0  0  0  0  0  0  0  0  0  0
    9.5901  -12.2645    0.0000 C   0  0  0  0  0  0  0  0  0  0  0  0
   10.4151  -10.8355    0.0000 C   0  0  0  0  0  0  0  0  0  0  0  0
    9.2881  -11.1375    0.0000 O   0  0  0  0  0  0  0  0  0  0  0  0
    8.5737  -11.5500    0.0000 C   0  0  0  0  0  0  0  0  0  0  0  0
    8.5737  -12.3750    0.0000 O   0  0  0  0  0  0  0  0  0  0  0  0
    7.8592  -11.1375    0.0000 N   0  0  0  0  0  0  0  0  0  0  0  0
    7.8592  -10.3125    0.0000 C   0  0  3  0  0  0  0  0  0  0  0  0
    7.1447   -9.9000    0.0000 C   0  0  0  0  0  0  0  0  0  0  0  0
    6.4302  -10.3125    0.0000 C   0  0  0  0  0  0  0  0  0  0  0  0
    6.4302  -11.1375    0.0000 O   0  0  0  0  0  0  0  0  0  0  0  0
    5.7158   -9.9000    0.0000 O   0  0  0  0  0  0  0  0  0  0  0  0
    5.0013  -10.3125    0.0000 C   0  0  0  0  0  0  0  0  0  0  0  0
    4.2868   -9.9000    0.0000 C   0  0  0  0  0  0  0  0  0  0  0  0
    3.5724  -10.3125    0.0000 C   0  0  0  0  0  0  0  0  0  0  0  0
    2.8579   -9.9000    0.0000 C   0  0  0  0  0  0  0  0  0  0  0  0
    2.8579   -9.0750    0.0000 C   0  0  0  0  0  0  0  0  0  0  0  0
    3.5724   -8.6625    0.0000 C   0  0  0  0  0  0  0  0  0  0  0  0
    4.2868   -9.0750    0.0000 C   0  0  0  0  0  0  0  0  0  0  0  0
    8.5737   -9.9000    0.0000 C   0  0  0  0  0  0  0  0  0  0  0  0
    8.5737   -9.0750    0.0000 O   0  0  0  0  0  0  0  0  0  0  0  0
    9.2881  -10.3125    0.0000 N   0  0  0  0  0  0  0  0  0  0  0  0
   10.0026   -9.9000    0.0000 C   0  0  3  0  0  0  0  0  0  0  0  0
   10.7171  -10.3125    0.0000 C   0  0  0  0  0  0  0  0  0  0  0  0
   11.4315   -9.9000    0.0000 C   0  0  0  0  0  0  0  0  0  0  0  0
   12.1460  -10.3125    0.0000 C   0  0  0  0  0  0  0  0  0  0  0  0
   12.8605   -9.9000    0.0000 C   0  0  0  0  0  0  0  0  0  0  0  0
   13.5749  -10.3125    0.0000 N   0  0  0  0  0  0  0  0  0  0  0  0
   14.2894   -9.9000    0.0000 C   0  0  0  0  0  0  0  0  0  0  0  0
   14.2894   -9.0750    0.0000 O   0  0  0  0  0  0  0  0  0  0  0  0
   15.0039  -10.3125    0.0000 O   0  0  0  0  0  0  0  0  0  0  0  0
   15.7184   -9.9000    0.0000 C   0  0  0  0  0  0  0  0  0  0  0  0
   16.4328  -10.3125    0.0000 C   0  0  0  0  0  0  0  0  0  0  0  0
   17.1473   -9.9000    0.0000 C   0  0  0  0  0  0  0  0  0  0  0  0
   17.8618  -10.3125    0.0000 C   0  0  0  0  0  0  0  0  0  0  0  0
   17.8618  -11.1375    0.0000 C   0  0  0  0  0  0  0  0  0  0  0  0
   17.1473  -11.5500    0.0000 C   0  0  0  0  0  0  0  0  0  0  0  0
   16.4328  -11.1375    0.0000 C   0  0  0  0  0  0  0  0  0  0  0  0
   10.0026   -9.0750    0.0000 C   0  0  0  0  0  0  0  0  0  0  0  0
   10.7171   -8.6625    0.0000 O   0  0  0  0  0  0  0  0  0  0  0  0
    9.2881   -8.6625    0.0000 O   0  0  0  0  0  0  0  0  0  0  0  0
    9.2881   -7.8375    0.0000 C   0  0  0  0  0  0  0  0  0  0  0  0
   10.1131   -7.8375    0.0000 C   0  0  0  0  0  0  0  0  0  0  0  0
    8.4631   -7.8375    0.0000 C   0  0  0  0  0  0  0  0  0  0  0  0
    9.2881   -7.0125    0.0000 C   0  0  0  0  0  0  0  0  0  0  0  0
  1  2  1  0  0  0  0
  2  3  1  0  0  0  0
  2  4  1  0  0  0  0
  2  5  1  0  0  0  0
  5  6  1  0  0  0  0
  6  7  2  0  0  0  0
  6  8  1  0  0  0  0
  8  9  1  0  0  0  0
  9 10  1  0  0  0  0
  9 21  1  0  0  0  0
 10 11  1  0  0  0  0
 11 12  2  0  0  0  0
 11 13  1  0  0  0  0
 13 14  1  0  0  0  0
 14 15  1  0  0  0  0
 15 16  2  0  0  0  0
 15 20  1  0  0  0  0
 16 17  1  0  0  0  0
 17 18  2  0  0  0  0
 18 19  1  0  0  0  0
 19 20  2  0  0  0  0
 21 22  2  0  0  0  0
 21 23  1  0  0  0  0
 23 24  1  0  0  0  0
 24 25  1  0  0  0  0
 24 40  1  0  0  0  0
 25 26  1  0  0  0  0
 26 27  1  0  0  0  0
 27 28  1  0  0  0  0
 28 29  1  0  0  0  0
 29 30  1  0  0  0  0
 30 31  2  0  0  0  0
 30 32  1  0  0  0  0
 32 33  1  0  0  0  0
 33 34  1  0  0  0  0
 34 35  2  0  0  0  0
 34 39  1  0  0  0  0
 35 36  1  0  0  0  0
 36 37  2  0  0  0  0
 37 38  1  0  0  0  0
 38 39  2  0  0  0  0
 40 41  2  0  0  0  0
 40 42  1  0  0  0  0
 42 43  1  0  0  0  0
 43 44  1  0  0  0  0
 43 45  1  0  0  0  0
 43 46  1  0  0  0  0
M  END
$$$$

 OpenBabel12191814062D

 30 33  0  0  0  0  0  0  0  0999 V2000
    5.8263    1.2375    0.0000 C   0  0  0  0  0  0  0  0  0  0  0  0
    5.0013    1.2375    0.0000 C   0  0  0  0  0  0  0  0  0  0  0  0
    4.1763    1.2375    0.0000 C   0  0  0  0  0  0  0  0  0  0  0  0
    5.0013    0.4125    0.0000 C   0  0  0  0  0  0  0  0  0  0  0  0
    5.7158    0.0000    0.0000 C   0  0  0  0  0  0  0  0  0  0  0  0
    5.7158   -0.8250    0.0000 C   0  0  0  0  0  0  0  0  0  0  0  0
    5.0013   -1.2375    0.0000 C   0  0  0  0  0  0  0  0  0  0  0  0
    4.2868   -0.8250    0.0000 C   0  0  0  0  0  0  0  0  0  0  0  0
    4.2868    0.0000    0.0000 C   0  0  0  0  0  0  0  0  0  0  0  0
    5.0013    2.0625    0.0000 C   0  0  0  0  0  0  0  0  0  0  0  0
    4.2868    2.4750    0.0000 C   0  0  0  0  0  0  0  0  0  0  0  0
    4.2868    3.3000    0.0000 C   0  0  0  0  0  0  0  0  0  0  0  0
    3.5724    3.7125    0.0000 C   0  0  0  0  0  0  0  0  0  0  0  0
    3.5724    4.5375    0.0000 N   0  0  0  0  0  0  0  0  0  0  0  0
    2.8579    4.9500    0.0000 C   0  0  0  0  0  0  0  0  0  0  0  0
    2.8579    5.7750    0.0000 C   0  0  0  0  0  0  0  0  0  0  0  0
    3.5724    6.1875    0.0000 C   0  0  0  0  0  0  0  0  0  0  0  0
    4.2868    5.7750    0.0000 C   0  0  0  0  0  0  0  0  0  0  0  0
    4.2868    4.9500    0.0000 C   0  0  0  0  0  0  0  0  0  0  0  0
    5.0013    3.7125    0.0000 C   0  0  0  0  0  0  0  0  0  0  0  0
    5.0013    4.5375    0.0000 O   0  0  0  0  0  0  0  0  0  0  0  0
    5.7158    3.3000    0.0000 C   0  0  0  0  0  0  0  0  0  0  0  0
    6.4302    3.7125    0.0000 C   0  0  0  0  0  0  0  0  0  0  0  0
    7.1447    3.3000    0.0000 N   0  0  0  0  0  0  0  0  0  0  0  0
    7.8592    3.7125    0.0000 C   0  0  0  0  0  0  0  0  0  0  0  0
    8.5737    3.3000    0.0000 C   0  0  0  0  0  0  0  0  0  0  0  0
    8.5737    2.4750    0.0000 C   0  0  0  0  0  0  0  0  0  0  0  0
    7.8592    2.0625    0.0000 C   0  0  0  0  0  0  0  0  0  0  0  0
    7.1447    2.4750    0.0000 C   0  0  0  0  0  0  0  0  0  0  0  0
    5.7158    2.4750    0.0000 C   0  0  0  0  0  0  0  0  0  0  0  0
  1  2  1  0  0  0  0
  2  3  1  0  0  0  0
  2  4  1  0  0  0  0
  2 10  1  0  0  0  0
  4  5  2  0  0  0  0
  4  9  1  0  0  0  0
  5  6  1  0  0  0  0
  6  7  2  0  0  0  0
  7  8  1  0  0  0  0
  8  9  2  0  0  0  0
 10 11  2  0  0  0  0
 10 30  1  0  0  0  0
 11 12  1  0  0  0  0
 12 13  1  0  0  0  0
 12 20  2  0  0  0  0
 13 14  1  0  0  0  0
 14 15  1  0  0  0  0
 14 19  1  0  0  0  0
 15 16  1  0  0  0  0
 16 17  1  0  0  0  0
 17 18  1  0  0  0  0
 18 19  1  0  0  0  0
 20 21  1  0  0  0  0
 20 22  1  0  0  0  0
 22 23  1  0  0  0  0
 22 30  2  0  0  0  0
 23 24  1  0  0  0  0
 24 25  1  0  0  0  0
 24 29  1  0  0  0  0
 25 26  1  0  0  0  0
 26 27  1  0  0  0  0
 27 28  1  0  0  0  0
 28 29  1  0  0  0  0
M  END
$$$$

 OpenBabel12191814062D

 33 37  0  0  0  0  0  0  0  0999 V2000
    0.0000   -0.0000    0.0000 C   0  0  0  0  0  0  0  0  0  0  0  0
    0.7145   -0.4125    0.0000 C   0  0  0  0  0  0  0  0  0  0  0  0
    1.4289    0.0000    0.0000 C   0  0  0  0  0  0  0  0  0  0  0  0
    0.7145   -1.2375    0.0000 N   0  0  0  0  0  0  0  0  0  0  0  0
    1.4289   -1.6500    0.0000 C   0  0  0  0  0  0  0  0  0  0  0  0
    2.1434   -1.2375    0.0000 C   0  0  0  0  0  0  0  0  0  0  0  0
    2.8579   -1.6500    0.0000 C   0  0  0  0  0  0  0  0  0  0  0  0
    3.5724   -1.2375    0.0000 N   0  0  0  0  0  0  0  0  0  0  0  0
    3.5724   -0.4125    0.0000 C   0  0  0  0  0  0  0  0  0  0  0  0
    2.8579    0.0000    0.0000 C   0  0  0  0  0  0  0  0  0  0  0  0
    2.8579    0.8250    0.0000 C   0  0  0  0  0  0  0  0  0  0  0  0
    3.5724    1.2375    0.0000 C   0  0  0  0  0  0  0  0  0  0  0  0
    3.5724    2.0625    0.0000 Cl  0  0  0  0  0  0  0  0  0  0  0  0
    4.2868    0.8250    0.0000 C   0  0  0  0  0  0  0  0  0  0  0  0
    4.2868    0.0000    0.0000 C   0  0  0  0  0  0  0  0  0  0  0  0
    4.2868   -1.6500    0.0000 C   0  0  0  0  0  0  0  0  0  0  0  0
    5.0013   -1.2375    0.0000 C   0  0  0  0  0  0  0  0  0  0  0  0
    5.7158   -1.6500    0.0000 C   0  0  0  0  0  0  0  0  0  0  0  0
    5.7158   -2.4750    0.0000 C   0  0  0  0  0  0  0  0  0  0  0  0
    5.0013   -2.8875    0.0000 C   0  0  0  0  0  0  0  0  0  0  0  0
    4.2868   -2.4750    0.0000 C   0  0  0  0  0  0  0  0  0  0  0  0
    3.5724   -2.8875    0.0000 N   0  0  0  0  0  0  0  0  0  0  0  0
    2.8579   -2.4750    0.0000 C   0  0  0  0  0  0  0  0  0  0  0  0
    2.1434   -2.8875    0.0000 C   0  0  0  0  0  0  0  0  0  0  0  0
    1.4289   -2.4750    0.0000 C   0  0  0  0  0  0  0  0  0  0  0  0
    0.7145   -2.8875    0.0000 N   0  0  0  0  0  0  0  0  0  0  0  0
    0.0000   -2.4750    0.0000 C   0  0  0  0  0  0  0  0  0  0  0  0
   -0.7145   -2.8875    0.0000 C   0  0  0  0  0  0  0  0  0  0  0  0
   -1.4289   -2.4750    0.0000 C   0  0  0  0  0  0  0  0  0  0  0  0
   -1.4289   -1.6500    0.0000 C   0  0  0  0  0  0  0  0  0  0  0  0
   -2.1434   -1.2375    0.0000 Cl  0  0  0  0  0  0  0  0  0  0  0  0
   -0.7145   -1.2375    0.0000 C   0  0  0  0  0  0  0  0  0  0  0  0
    0.0000   -1.6500    0.0000 C   0  0  0  0  0  0  0  0  0  0  0  0
  1  2  1  0  0  0  0
  2  3  1  0  0  0  0
  2  4  1  0  0  0  0
  4  5  2  0  0  0  0
  5  6  1  0  0  0  0
  5 25  1  0  0  0  0
  6  7  2  0  0  0  0
  7  8  1  0  0  0  0
  7 23  1  0  0  0  0
  8  9  1  0  0  0  0
  8 16  1  0  0  0  0
  9 10  2  0  0  0  0
  9 15  1  0  0  0  0
 10 11  1  0  0  0  0
 11 12  2  0  0  0  0
 12 13  1  0  0  0  0
 12 14  1  0  0  0  0
 14 15  2  0  0  0  0
 16 17  2  0  0  0  0
 16 21  1  0  0  0  0
 17 18  1  0  0  0  0
 18 19  2  0  0  0  0
 19 20  1  0  0  0  0
 20 21  2  0  0  0  0
 21 22  1  0  0  0  0
 22 23  2  0  0  0  0
 23 24  1  0  0  0  0
 24 25  2  0  0  0  0
 25 26  1  0  0  0  0
 26 27  1  0  0  0  0
 27 28  2  0  0  0  0
 27 33  1  0  0  0  0
 28 29  1  0  0  0  0
 29 30  2  0  0  0  0
 30 31  1  0  0  0  0
 30 32  1  0  0  0  0
 32 33  2  0  0  0  0
M  END
$$$$

 OpenBabel12191814062D

 31 33  0  0  0  0  0  0  0  0999 V2000
   14.7838    1.1104    0.0000 C   0  0  0  0  0  0  0  0  0  0  0  0
   14.0693    0.6979    0.0000 C   0  0  0  0  0  0  0  0  0  0  0  0
   14.0693   -0.1271    0.0000 C   0  0  0  0  0  0  0  0  0  0  0  0
   13.3549    1.1104    0.0000 C   0  0  0  0  0  0  0  0  0  0  0  0
   12.6404    0.6979    0.0000 C   0  0  0  0  0  0  0  0  0  0  0  0
   11.9259    1.1104    0.0000 C   0  0  0  0  0  0  0  0  0  0  0  0
   11.2115    0.6979    0.0000 C   0  0  0  0  0  0  0  0  0  0  0  0
   11.2115   -0.1271    0.0000 C   0  0  0  0  0  0  0  0  0  0  0  0
   10.4970    1.1104    0.0000 C   0  0  0  0  0  0  0  0  0  0  0  0
    9.7825    0.6979    0.0000 C   0  0  0  0  0  0  0  0  0  0  0  0
    9.0681    1.1104    0.0000 C   0  0  0  0  0  0  0  0  0  0  0  0
    8.3536    0.6979    0.0000 C   0  0  0  0  0  0  0  0  0  0  0  0
    8.3536   -0.1271    0.0000 C   0  0  0  0  0  0  0  0  0  0  0  0
    7.6391    1.1104    0.0000 C   0  0  0  0  0  0  0  0  0  0  0  0
    6.9246    0.6979    0.0000 C   0  0  0  0  0  0  0  0  0  0  0  0
    6.2102    1.1104    0.0000 N   0  0  0  0  0  0  0  0  0  0  0  0
    5.4957    0.6979    0.0000 C   0  0  0  0  0  0  0  0  0  0  0  0
    4.7812    1.1104    0.0000 C   0  0  0  0  0  0  0  0  0  0  0  0
    4.7812    1.9354    0.0000 N   0  0  0  0  0  0  0  0  0  0  0  0
    4.0668    2.3479    0.0000 C   0  0  0  0  0  0  0  0  0  0  0  0
    3.3523    1.9354    0.0000 C   0  0  0  0  0  0  0  0  0  0  0  0
    3.3523    1.1104    0.0000 C   0  0  0  0  0  0  0  0  0  0  0  0
    2.6378    0.6979    0.0000 C   0  0  0  0  0  0  0  0  0  0  0  0
    1.9233    1.1104    0.0000 C   0  0  0  0  0  0  0  0  0  0  0  0
    1.1387    0.8555    0.0000 O   0  0  0  0  0  0  0  0  0  0  0  0
    0.6538    1.5229    0.0000 C   0  0  0  0  0  0  0  0  0  0  0  0
    1.1387    2.1904    0.0000 O   0  0  0  0  0  0  0  0  0  0  0  0
    1.9233    1.9354    0.0000 C   0  0  0  0  0  0  0  0  0  0  0  0
    2.6378    2.3479    0.0000 C   0  0  0  0  0  0  0  0  0  0  0  0
    5.4957    2.3479    0.0000 C   0  0  0  0  0  0  0  0  0  0  0  0
    6.2102    1.9354    0.0000 C   0  0  0  0  0  0  0  0  0  0  0  0
  1  2  1  0  0  0  0
  2  3  1  0  0  0  0
  2  4  2  0  0  0  0
  4  5  1  0  0  0  0
  5  6  1  0  0  0  0
  6  7  1  0  0  0  0
  7  8  1  0  0  0  0
  7  9  2  0  0  0  0
  9 10  1  0  0  0  0
 10 11  1  0  0  0  0
 11 12  1  0  0  0  0
 12 13  1  0  0  0  0
 12 14  2  0  0  0  0
 14 15  1  0  0  0  0
 15 16  1  0  0  0  0
 16 17  1  0  0  0  0
 16 31  1  0  0  0  0
 17 18  1  0  0  0  0
 18 19  1  0  0  0  0
 19 20  1  0  0  0  0
 19 30  1  0  0  0  0
 20 21  1  0  0  0  0
 21 22  2  0  0  0  0
 21 29  1  0  0  0  0
 22 23  1  0  0  0  0
 23 24  2  0  0  0  0
 24 25  1  0  0  0  0
 24 28  1  0  0  0  0
 25 26  1  0  0  0  0
 26 27  1  0  0  0  0
 27 28  1  0  0  0  0
 28 29  2  0  0  0  0
 30 31  1  0  0  0  0
M  END
$$$$

 OpenBabel12191814062D

 25 24  0  0  0  0  0  0  0  0999 V2000
   -6.0987    1.4289    0.0000 C   0  0  0  0  0  0  0  0  0  0  0  0
   -5.3842    1.8414    0.0000 C   0  0  0  0  0  0  0  0  0  0  0  0
   -5.3842    2.6664    0.0000 C   0  0  0  0  0  0  0  0  0  0  0  0
   -4.6697    1.4289    0.0000 C   0  0  0  0  0  0  0  0  0  0  0  0
   -3.9552    1.8414    0.0000 C   0  0  0  0  0  0  0  0  0  0  0  0
   -3.2408    1.4289    0.0000 C   0  0  0  0  0  0  0  0  0  0  0  0
   -2.5263    1.8414    0.0000 C   0  0  0  0  0  0  0  0  0  0  0  0
   -2.5263    2.6664    0.0000 C   0  0  0  0  0  0  0  0  0  0  0  0
   -1.8118    1.4289    0.0000 C   0  0  0  0  0  0  0  0  0  0  0  0
   -1.0974    1.8414    0.0000 C   0  0  0  0  0  0  0  0  0  0  0  0
   -0.3829    1.4289    0.0000 C   0  0  0  0  0  0  0  0  0  0  0  0
    0.3316    1.8414    0.0000 C   0  0  0  0  0  0  0  0  0  0  0  0
    0.3316    2.6664    0.0000 C   0  0  0  0  0  0  0  0  0  0  0  0
    1.0461    1.4289    0.0000 C   0  0  0  0  0  0  0  0  0  0  0  0
    1.7605    1.8414    0.0000 C   0  0  0  0  0  0  0  0  0  0  0  0
    2.4750    1.4289    0.0000 S   0  0  0  0  0  0  0  0  0  0  0  0
    3.1895    1.8414    0.0000 C   0  0  0  0  0  0  0  0  0  0  0  0
    3.9039    1.4289    0.0000 C   0  0  3  0  0  0  0  0  0  0  0  0
    4.6184    1.8414    0.0000 N   0  0  0  0  0  0  0  0  0  0  0  0
    5.3329    1.4289    0.0000 C   0  0  0  0  0  0  0  0  0  0  0  0
    6.0474    1.8414    0.0000 C   0  0  0  0  0  0  0  0  0  0  0  0
    5.3329    0.6039    0.0000 O   0  0  0  0  0  0  0  0  0  0  0  0
    3.9039    0.6039    0.0000 C   0  0  0  0  0  0  0  0  0  0  0  0
    4.6184    0.1914    0.0000 N   0  0  0  0  0  0  0  0  0  0  0  0
    3.1895    0.1914    0.0000 O   0  0  0  0  0  0  0  0  0  0  0  0
  1  2  1  0  0  0  0
  2  3  1  0  0  0  0
  2  4  2  0  0  0  0
  4  5  1  0  0  0  0
  5  6  1  0  0  0  0
  6  7  1  0  0  0  0
  7  8  1  0  0  0  0
  7  9  2  0  0  0  0
  9 10  1  0  0  0  0
 10 11  1  0  0  0  0
 11 12  1  0  0  0  0
 12 13  1  0  0  0  0
 12 14  2  0  0  0  0
 14 15  1  0  0  0  0
 15 16  1  0  0  0  0
 16 17  1  0  0  0  0
 17 18  1  0  0  0  0
 18 19  1  0  0  0  0
 18 23  1  0  0  0  0
 19 20  1  0  0  0  0
 20 21  1  0  0  0  0
 20 22  2  0  0  0  0
 23 24  1  0  0  0  0
 23 25  2  0  0  0  0
M  END
$$$$

 OpenBabel12191814062D

 55 60  0  0  0  0  0  0  0  0999 V2000
    8.4474    3.3462    0.0000 C   0  0  0  0  0  0  0  0  0  0  0  0
    7.9411    2.6948    0.0000 C   0  0  0  0  0  0  0  0  0  0  0  0
    8.2520    1.9307    0.0000 C   0  0  0  0  0  0  0  0  0  0  0  0
    7.1238    2.8077    0.0000 C   0  0  0  0  0  0  0  0  0  0  0  0
    6.6175    2.1564    0.0000 C   0  0  0  0  0  0  0  0  0  0  0  0
    5.8002    2.2692    0.0000 C   0  0  0  0  0  0  0  0  0  0  0  0
    5.2939    1.6179    0.0000 C   0  0  3  0  0  0  0  0  0  0  0  0
    4.6425    2.1242    0.0000 C   0  0  0  0  0  0  0  0  0  0  0  0
    5.9452    1.1115    0.0000 O   0  0  0  0  0  0  0  0  0  0  0  0
    4.7875    0.9666    0.0000 C   0  0  3  0  0  0  0  0  0  0  0  0
    5.0168    0.1741    0.0000 C   0  0  0  0  0  0  0  0  0  0  0  0
    4.3340   -0.2889    0.0000 C   0  0  0  0  0  0  0  0  0  0  0  0
    3.6826    0.2174    0.0000 C   0  0  3  0  0  0  0  0  0  0  0  0
    3.4850   -0.5835    0.0000 C   0  0  0  0  0  0  0  0  0  0  0  0
    3.9629    0.9934    0.0000 C   0  0  3  0  0  0  0  0  0  0  0  0
    3.4311    1.6241    0.0000 C   0  0  3  0  0  0  0  0  0  0  0  0
    3.7114    2.4000    0.0000 O   0  0  0  0  0  0  0  0  0  0  0  0
    2.6190    1.4789    0.0000 C   0  0  0  0  0  0  0  0  0  0  0  0
    2.3387    0.7029    0.0000 C   0  0  3  0  0  0  0  0  0  0  0  0
    2.8705    0.0722    0.0000 C   0  0  3  0  0  0  0  0  0  0  0  0
    2.5902   -0.7037    0.0000 C   0  0  0  0  0  0  0  0  0  0  0  0
    1.7781   -0.8489    0.0000 C   0  0  0  0  0  0  0  0  0  0  0  0
    1.2463   -0.2182    0.0000 C   0  0  3  0  0  0  0  0  0  0  0  0
    0.4342   -0.3634    0.0000 C   0  0  0  0  0  0  0  0  0  0  0  0
    0.7182   -1.1380    0.0000 C   0  0  0  0  0  0  0  0  0  0  0  0
   -0.2793   -0.7776    0.0000 C   0  0  0  0  0  0  0  0  0  0  0  0
   -0.0976    0.2673    0.0000 C   0  0  3  0  0  0  0  0  0  0  0  0
    0.1827    1.0432    0.0000 C   0  0  0  0  0  0  0  0  0  0  0  0
    0.9948    1.1884    0.0000 C   0  0  0  0  0  0  0  0  0  0  0  0
    1.5266    0.5577    0.0000 C   0  0  3  0  0  0  0  0  0  0  0  0
    1.8069    1.3336    0.0000 C   0  0  0  0  0  0  0  0  0  0  0  0
   -0.9098    0.1221    0.0000 O   0  0  0  0  0  0  0  0  0  0  0  0
   -1.1901   -0.6539    0.0000 C   0  0  3  0  0  0  0  0  0  0  0  0
   -0.6582   -1.2846    0.0000 O   0  0  0  0  0  0  0  0  0  0  0  0
   -0.9385   -2.0605    0.0000 C   0  0  3  0  0  0  0  0  0  0  0  0
   -0.4067   -2.6912    0.0000 C   0  0  0  0  0  0  0  0  0  0  0  0
   -0.6870   -3.4671    0.0000 O   0  0  0  0  0  0  0  0  0  0  0  0
   -1.7507   -2.2057    0.0000 C   0  0  3  0  0  0  0  0  0  0  0  0
   -2.0310   -2.9816    0.0000 O   0  0  0  0  0  0  0  0  0  0  0  0
   -2.2825   -1.5750    0.0000 C   0  0  3  0  0  0  0  0  0  0  0  0
   -3.0946   -1.7202    0.0000 O   0  0  0  0  0  0  0  0  0  0  0  0
   -2.0022   -0.7991    0.0000 C   0  0  3  0  0  0  0  0  0  0  0  0
   -2.5340   -0.1684    0.0000 O   0  0  0  0  0  0  0  0  0  0  0  0
   -3.3461   -0.3136    0.0000 C   0  0  3  0  0  0  0  0  0  0  0  0
   -3.6264   -1.0895    0.0000 O   0  0  0  0  0  0  0  0  0  0  0  0
   -4.4385   -1.2347    0.0000 C   0  0  3  0  0  0  0  0  0  0  0  0
   -4.7188   -2.0106    0.0000 C   0  0  0  0  0  0  0  0  0  0  0  0
   -4.1870   -2.6413    0.0000 O   0  0  0  0  0  0  0  0  0  0  0  0
   -4.9704   -0.6040    0.0000 C   0  0  3  0  0  0  0  0  0  0  0  0
   -5.7825   -0.7492    0.0000 O   0  0  0  0  0  0  0  0  0  0  0  0
   -4.6901    0.1719    0.0000 C   0  0  3  0  0  0  0  0  0  0  0  0
   -5.2219    0.8026    0.0000 C   0  0  0  0  0  0  0  0  0  0  0  0
   -4.9416    1.5785    0.0000 O   0  0  0  0  0  0  0  0  0  0  0  0
   -3.8779    0.3171    0.0000 C   0  0  3  0  0  0  0  0  0  0  0  0
   -3.5976    1.0931    0.0000 O   0  0  0  0  0  0  0  0  0  0  0  0
  1  2  1  0  0  0  0
  2  3  1  0  0  0  0
  2  4  2  0  0  0  0
  4  5  1  0  0  0  0
  5  6  1  0  0  0  0
  6  7  1  0  0  0  0
  7  8  1  0  0  0  0
  7  9  1  0  0  0  0
  7 10  1  0  0  0  0
 10 11  1  0  0  0  0
 10 15  1  0  0  0  0
 11 12  1  0  0  0  0
 12 13  1  0  0  0  0
 13 14  1  0  0  0  0
 13 15  1  0  0  0  0
 13 20  1  0  0  0  0
 15 16  1  0  0  0  0
 16 17  1  0  0  0  0
 16 18  1  0  0  0  0
 18 19  1  0  0  0  0
 19 20  1  0  0  0  0
 19 30  1  0  0  0  0
 20 21  1  0  0  0  0
 21 22  1  0  0  0  0
 22 23  1  0  0  0  0
 23 24  1  0  0  0  0
 23 30  1  0  0  0  0
 24 25  1  0  0  0  0
 24 26  1  0  0  0  0
 24 27  1  0  0  0  0
 27 28  1  0  0  0  0
 27 32  1  0  0  0  0
 28 29  1  0  0  0  0
 29 30  1  0  0  0  0
 30 31  1  0  0  0  0
 32 33  1  0  0  0  0
 33 34  1  0  0  0  0
 33 42  1  0  0  0  0
 34 35  1  0  0  0  0
 35 36  1  0  0  0  0
 35 38  1  0  0  0  0
 36 37  1  0  0  0  0
 38 39  1  0  0  0  0
 38 40  1  0  0  0  0
 40 41  1  0  0  0  0
 40 42  1  0  0  0  0
 42 43  1  0  0  0  0
 43 44  1  0  0  0  0
 44 45  1  0  0  0  0
 44 54  1  0  0  0  0
 45 46  1  0  0  0  0
 46 47  1  0  0  0  0
 46 49  1  0  0  0  0
 47 48  1  0  0  0  0
 49 50  1  0  0  0  0
 49 51  1  0  0  0  0
 51 52  1  0  0  0  0
 51 54  1  0  0  0  0
 52 53  1  0  0  0  0
 54 55  1  0  0  0  0
M  END
$$$$

 OpenBabel12191814062D

 44 48  0  0  0  0  0  0  0  0999 V2000
   -1.6069    0.6378    0.0000 C   0  0  0  0  0  0  0  0  0  0  0  0
   -1.1006   -0.0136    0.0000 C   0  0  0  0  0  0  0  0  0  0  0  0
   -0.2833    0.0993    0.0000 C   0  0  0  0  0  0  0  0  0  0  0  0
   -1.4115   -0.7777    0.0000 C   0  0  0  0  0  0  0  0  0  0  0  0
   -0.9051   -1.4291    0.0000 C   0  0  0  0  0  0  0  0  0  0  0  0
   -0.0879   -1.3162    0.0000 C   0  0  0  0  0  0  0  0  0  0  0  0
    0.4185   -1.9676    0.0000 C   0  0  3  0  0  0  0  0  0  0  0  0
   -0.2328   -2.4739    0.0000 C   0  0  0  0  0  0  0  0  0  0  0  0
    1.0698   -1.4612    0.0000 O   0  0  0  0  0  0  0  0  0  0  0  0
    0.9249   -2.6189    0.0000 C   0  0  3  0  0  0  0  0  0  0  0  0
    0.6955   -3.4114    0.0000 C   0  0  0  0  0  0  0  0  0  0  0  0
    1.3784   -3.8744    0.0000 C   0  0  0  0  0  0  0  0  0  0  0  0
    2.0297   -3.3680    0.0000 C   0  0  3  0  0  0  0  0  0  0  0  0
    2.2274   -4.1690    0.0000 C   0  0  0  0  0  0  0  0  0  0  0  0
    1.7494   -2.5921    0.0000 C   0  0  3  0  0  0  0  0  0  0  0  0
    2.2812   -1.9614    0.0000 C   0  0  3  0  0  0  0  0  0  0  0  0
    2.0009   -1.1854    0.0000 O   0  0  0  0  0  0  0  0  0  0  0  0
    3.0934   -2.1066    0.0000 C   0  0  0  0  0  0  0  0  0  0  0  0
    3.3737   -2.8825    0.0000 C   0  0  3  0  0  0  0  0  0  0  0  0
    4.1858   -3.0277    0.0000 C   0  0  3  0  0  0  0  0  0  0  0  0
    3.9055   -2.2518    0.0000 C   0  0  0  0  0  0  0  0  0  0  0  0
    4.7176   -2.3970    0.0000 C   0  0  0  0  0  0  0  0  0  0  0  0
    5.5297   -2.5422    0.0000 C   0  0  0  0  0  0  0  0  0  0  0  0
    5.8100   -3.3182    0.0000 C   0  0  3  0  0  0  0  0  0  0  0  0
    6.6221   -3.4634    0.0000 O   0  0  0  0  0  0  0  0  0  0  0  0
    7.1540   -2.8327    0.0000 C   0  0  3  0  0  0  0  0  0  0  0  0
    6.8737   -2.0567    0.0000 O   0  0  0  0  0  0  0  0  0  0  0  0
    7.4055   -1.4260    0.0000 C   0  0  3  0  0  0  0  0  0  0  0  0
    7.1252   -0.6501    0.0000 C   0  0  0  0  0  0  0  0  0  0  0  0
    6.3131   -0.5049    0.0000 O   0  0  0  0  0  0  0  0  0  0  0  0
    8.2176   -1.5712    0.0000 C   0  0  3  0  0  0  0  0  0  0  0  0
    8.7494   -0.9405    0.0000 O   0  0  0  0  0  0  0  0  0  0  0  0
    8.4979   -2.3472    0.0000 C   0  0  3  0  0  0  0  0  0  0  0  0
    9.3100   -2.4924    0.0000 O   0  0  0  0  0  0  0  0  0  0  0  0
    7.9661   -2.9779    0.0000 C   0  0  3  0  0  0  0  0  0  0  0  0
    8.2464   -3.7538    0.0000 O   0  0  0  0  0  0  0  0  0  0  0  0
    5.2782   -3.9489    0.0000 C   0  0  0  0  0  0  0  0  0  0  0  0
    5.9917   -4.3631    0.0000 C   0  0  0  0  0  0  0  0  0  0  0  0
    4.9942   -4.7234    0.0000 C   0  0  0  0  0  0  0  0  0  0  0  0
    4.4661   -3.8037    0.0000 C   0  0  3  0  0  0  0  0  0  0  0  0
    3.9343   -4.4344    0.0000 C   0  0  0  0  0  0  0  0  0  0  0  0
    3.1221   -4.2891    0.0000 C   0  0  0  0  0  0  0  0  0  0  0  0
    2.8418   -3.5132    0.0000 C   0  0  3  0  0  0  0  0  0  0  0  0
    2.5309   -4.2774    0.0000 C   0  0  0  0  0  0  0  0  0  0  0  0
  1  2  1  0  0  0  0
  2  3  1  0  0  0  0
  2  4  2  0  0  0  0
  4  5  1  0  0  0  0
  5  6  1  0  0  0  0
  6  7  1  0  0  0  0
  7  8  1  0  0  0  0
  7  9  1  0  0  0  0
  7 10  1  0  0  0  0
 10 11  1  0  0  0  0
 10 15  1  0  0  0  0
 11 12  1  0  0  0  0
 12 13  1  0  0  0  0
 13 14  1  0  0  0  0
 13 15  1  0  0  0  0
 13 43  1  0  0  0  0
 15 16  1  0  0  0  0
 16 17  1  0  0  0  0
 16 18  1  0  0  0  0
 18 19  1  0  0  0  0
 19 20  1  0  0  0  0
 19 43  1  0  0  0  0
 20 21  1  0  0  0  0
 20 22  1  0  0  0  0
 20 40  1  0  0  0  0
 22 23  1  0  0  0  0
 23 24  1  0  0  0  0
 24 25  1  0  0  0  0
 24 37  1  0  0  0  0
 25 26  1  0  0  0  0
 26 27  1  0  0  0  0
 26 35  1  0  0  0  0
 27 28  1  0  0  0  0
 28 29  1  0  0  0  0
 28 31  1  0  0  0  0
 29 30  1  0  0  0  0
 31 32  1  0  0  0  0
 31 33  1  0  0  0  0
 33 34  1  0  0  0  0
 33 35  1  0  0  0  0
 35 36  1  0  0  0  0
 37 38  1  0  0  0  0
 37 39  1  0  0  0  0
 37 40  1  0  0  0  0
 40 41  1  0  0  0  0
 41 42  1  0  0  0  0
 42 43  1  0  0  0  0
 43 44  1  0  0  0  0
M  END
$$$$

 OpenBabel12191814062D

 36 39  0  0  0  0  0  0  0  0999 V2000
   -4.1250    4.5079    0.0000 C   0  0  0  0  0  0  0  0  0  0  0  0
   -4.1250    3.6829    0.0000 C   0  0  0  0  0  0  0  0  0  0  0  0
   -4.8395    3.2704    0.0000 C   0  0  0  0  0  0  0  0  0  0  0  0
   -3.4105    3.2704    0.0000 C   0  0  0  0  0  0  0  0  0  0  0  0
   -2.6961    3.6829    0.0000 O   0  0  0  0  0  0  0  0  0  0  0  0
   -3.4105    2.4454    0.0000 C   0  0  0  0  0  0  0  0  0  0  0  0
   -2.6961    2.0329    0.0000 C   0  0  0  0  0  0  0  0  0  0  0  0
   -2.6961    1.2079    0.0000 C   0  0  0  0  0  0  0  0  0  0  0  0
   -3.4105    0.7954    0.0000 C   0  0  0  0  0  0  0  0  0  0  0  0
   -3.4105   -0.0296    0.0000 O   0  0  0  0  0  0  0  0  0  0  0  0
   -4.1250   -0.4421    0.0000 C   0  0  0  0  0  0  0  0  0  0  0  0
   -4.1250   -1.2671    0.0000 C   0  0  0  0  0  0  0  0  0  0  0  0
   -3.4105   -1.6796    0.0000 N   0  0  0  0  0  0  0  0  0  0  0  0
   -2.6961   -1.2671    0.0000 C   0  0  0  0  0  0  0  0  0  0  0  0
   -1.9816   -1.6796    0.0000 C   0  0  0  0  0  0  0  0  0  0  0  0
   -1.9816   -2.5046    0.0000 C   0  0  0  0  0  0  0  0  0  0  0  0
   -2.6961   -2.9171    0.0000 C   0  0  0  0  0  0  0  0  0  0  0  0
   -3.4105   -2.5046    0.0000 C   0  0  0  0  0  0  0  0  0  0  0  0
   -1.2671   -2.9171    0.0000 C   0  0  0  0  0  0  0  0  0  0  0  0
   -1.6796   -3.6316    0.0000 O   0  0  0  0  0  0  0  0  0  0  0  0
   -0.5526   -3.3296    0.0000 C   0  0  0  0  0  0  0  0  0  0  0  0
    0.1618   -2.9171    0.0000 C   0  0  0  0  0  0  0  0  0  0  0  0
    0.8763   -3.3296    0.0000 C   0  0  0  0  0  0  0  0  0  0  0  0
    0.8763   -4.1546    0.0000 C   0  0  0  0  0  0  0  0  0  0  0  0
    1.5908   -4.5671    0.0000 F   0  0  0  0  0  0  0  0  0  0  0  0
    0.1618   -4.5671    0.0000 C   0  0  0  0  0  0  0  0  0  0  0  0
   -0.5526   -4.1546    0.0000 C   0  0  0  0  0  0  0  0  0  0  0  0
   -0.8546   -2.2026    0.0000 C   0  0  0  0  0  0  0  0  0  0  0  0
   -1.2671   -1.4882    0.0000 C   0  0  0  0  0  0  0  0  0  0  0  0
   -0.8546   -0.7737    0.0000 C   0  0  0  0  0  0  0  0  0  0  0  0
   -0.0296   -0.7737    0.0000 C   0  0  0  0  0  0  0  0  0  0  0  0
    0.3829   -0.0592    0.0000 F   0  0  0  0  0  0  0  0  0  0  0  0
    0.3829   -1.4882    0.0000 C   0  0  0  0  0  0  0  0  0  0  0  0
   -0.0296   -2.2026    0.0000 C   0  0  0  0  0  0  0  0  0  0  0  0
   -4.1250    1.2079    0.0000 C   0  0  0  0  0  0  0  0  0  0  0  0
   -4.1250    2.0329    0.0000 C   0  0  0  0  0  0  0  0  0  0  0  0
  1  2  1  0  0  0  0
  2  3  1  0  0  0  0
  2  4  1  0  0  0  0
  4  5  2  0  0  0  0
  4  6  1  0  0  0  0
  6  7  2  0  0  0  0
  6 36  1  0  0  0  0
  7  8  1  0  0  0  0
  8  9  2  0  0  0  0
  9 10  1  0  0  0  0
  9 35  1  0  0  0  0
 10 11  1  0  0  0  0
 11 12  1  0  0  0  0
 12 13  1  0  0  0  0
 13 14  1  0  0  0  0
 13 18  1  0  0  0  0
 14 15  1  0  0  0  0
 15 16  1  0  0  0  0
 16 17  1  0  0  0  0
 16 19  1  0  0  0  0
 17 18  1  0  0  0  0
 19 20  1  0  0  0  0
 19 21  1  0  0  0  0
 19 28  1  0  0  0  0
 21 22  2  0  0  0  0
 21 27  1  0  0  0  0
 22 23  1  0  0  0  0
 23 24  2  0  0  0  0
 24 25  1  0  0  0  0
 24 26  1  0  0  0  0
 26 27  2  0  0  0  0
 28 29  2  0  0  0  0
 28 34  1  0  0  0  0
 29 30  1  0  0  0  0
 30 31  2  0  0  0  0
 31 32  1  0  0  0  0
 31 33  1  0  0  0  0
 33 34  2  0  0  0  0
 35 36  2  0  0  0  0
M  END
$$$$

 OpenBabel12191814062D

 58 61  0  0  0  0  0  0  0  0999 V2000
    7.9476    2.8641    0.0000 C   0  0  0  0  0  0  0  0  0  0  0  0
    7.1482    2.6602    0.0000 C   0  0  0  0  0  0  0  0  0  0  0  0
    6.5720    3.2505    0.0000 C   0  0  0  0  0  0  0  0  0  0  0  0
    6.9251    1.8659    0.0000 C   0  0  0  0  0  0  0  0  0  0  0  0
    7.5014    1.2756    0.0000 O   0  0  0  0  0  0  0  0  0  0  0  0
    6.1257    1.6620    0.0000 O   0  0  0  0  0  0  0  0  0  0  0  0
    5.9025    0.8678    0.0000 C   0  0  3  0  0  0  0  0  0  0  0  0
    6.6120    0.4467    0.0000 C   0  0  3  0  0  0  0  0  0  0  0  0
    7.2023    1.0230    0.0000 O   0  0  0  0  0  0  0  0  0  0  0  0
    7.0158   -0.2727    0.0000 C   0  0  3  0  0  0  0  0  0  0  0  0
    7.8152   -0.0688    0.0000 O   0  0  0  0  0  0  0  0  0  0  0  0
    8.0384    0.7254    0.0000 C   0  0  0  0  0  0  0  0  0  0  0  0
    7.9192    1.5418    0.0000 O   0  0  0  0  0  0  0  0  0  0  0  0
    8.8378    0.9293    0.0000 C   0  0  0  0  0  0  0  0  0  0  0  0
    9.4140    0.3389    0.0000 C   0  0  0  0  0  0  0  0  0  0  0  0
   10.2134    0.5428    0.0000 C   0  0  0  0  0  0  0  0  0  0  0  0
   10.4366    1.3371    0.0000 C   0  0  0  0  0  0  0  0  0  0  0  0
    9.8603    1.9274    0.0000 N   0  0  0  0  0  0  0  0  0  0  0  0
    9.0609    1.7235    0.0000 C   0  0  0  0  0  0  0  0  0  0  0  0
    7.0058   -1.0977    0.0000 C   0  0  0  0  0  0  0  0  0  0  0  0
    7.2786   -1.8763    0.0000 C   0  0  0  0  0  0  0  0  0  0  0  0
    7.8200   -0.9642    0.0000 C   0  0  0  0  0  0  0  0  0  0  0  0
    6.2864   -1.5015    0.0000 C   0  0  0  0  0  0  0  0  0  0  0  0
    5.8653   -2.2109    0.0000 C   0  0  0  0  0  0  0  0  0  0  0  0
    5.0404   -2.2010    0.0000 C   0  0  3  0  0  0  0  0  0  0  0  0
    4.8172   -2.9952    0.0000 C   0  0  0  0  0  0  0  0  0  0  0  0
    4.3310   -1.7798    0.0000 C   0  0  3  0  0  0  0  0  0  0  0  0
    3.7406   -2.3561    0.0000 O   0  0  0  0  0  0  0  0  0  0  0  0
    3.9445   -3.1555    0.0000 C   0  0  0  0  0  0  0  0  0  0  0  0
    4.7387   -3.3787    0.0000 C   0  0  0  0  0  0  0  0  0  0  0  0
    3.3541   -3.7318    0.0000 O   0  0  0  0  0  0  0  0  0  0  0  0
    3.9271   -1.0604    0.0000 C   0  0  3  0  0  0  0  0  0  0  0  0
    3.6222   -1.8270    0.0000 O   0  0  0  0  0  0  0  0  0  0  0  0
    3.1395   -1.3059    0.0000 C   0  0  0  0  0  0  0  0  0  0  0  0
    2.6626   -0.6326    0.0000 C   0  0  3  0  0  0  0  0  0  0  0  0
    2.0563   -0.0732    0.0000 C   0  0  0  0  0  0  0  0  0  0  0  0
    2.0429   -1.1772    0.0000 O   0  0  0  0  0  0  0  0  0  0  0  0
    1.2614   -0.9128    0.0000 C   0  0  0  0  0  0  0  0  0  0  0  0
    0.6417   -1.4574    0.0000 C   0  0  0  0  0  0  0  0  0  0  0  0
    1.0997   -0.1038    0.0000 O   0  0  0  0  0  0  0  0  0  0  0  0
    3.1556    0.0289    0.0000 C   0  0  3  0  0  0  0  0  0  0  0  0
    2.9102    0.8165    0.0000 O   0  0  0  0  0  0  0  0  0  0  0  0
    2.1053    0.9978    0.0000 C   0  0  0  0  0  0  0  0  0  0  0  0
    1.5459    0.3914    0.0000 O   0  0  0  0  0  0  0  0  0  0  0  0
    1.8599    1.7855    0.0000 C   0  0  0  0  0  0  0  0  0  0  0  0
    1.0550    1.9667    0.0000 C   0  0  0  0  0  0  0  0  0  0  0  0
    0.8096    2.7544    0.0000 C   0  0  0  0  0  0  0  0  0  0  0  0
    1.3690    3.3607    0.0000 C   0  0  0  0  0  0  0  0  0  0  0  0
    2.1739    3.1795    0.0000 C   0  0  0  0  0  0  0  0  0  0  0  0
    2.4193    2.3918    0.0000 C   0  0  0  0  0  0  0  0  0  0  0  0
    3.9371   -0.2355    0.0000 C   0  0  3  0  0  0  0  0  0  0  0  0
    4.3582    0.4739    0.0000 C   0  0  3  0  0  0  0  0  0  0  0  0
    3.7819    1.0643    0.0000 O   0  0  0  0  0  0  0  0  0  0  0  0
    4.0051    1.8585    0.0000 C   0  0  0  0  0  0  0  0  0  0  0  0
    3.4288    2.4489    0.0000 C   0  0  0  0  0  0  0  0  0  0  0  0
    4.8045    2.0624    0.0000 O   0  0  0  0  0  0  0  0  0  0  0  0
    5.0776    0.8778    0.0000 C   0  0  0  0  0  0  0  0  0  0  0  0
    4.8737    1.6772    0.0000 C   0  0  0  0  0  0  0  0  0  0  0  0
  1  2  1  0  0  0  0
  2  3  1  0  0  0  0
  2  4  1  0  0  0  0
  4  5  2  0  0  0  0
  4  6  1  0  0  0  0
  6  7  1  0  0  0  0
  7  8  1  0  0  0  0
  7 57  1  0  0  0  0
  8  9  1  0  0  0  0
  8 10  1  0  0  0  0
 10 11  1  0  0  0  0
 10 20  1  0  0  0  0
 11 12  1  0  0  0  0
 12 13  2  0  0  0  0
 12 14  1  0  0  0  0
 14 15  2  0  0  0  0
 14 19  1  0  0  0  0
 15 16  1  0  0  0  0
 16 17  2  0  0  0  0
 17 18  1  0  0  0  0
 18 19  2  0  0  0  0
 20 21  1  0  0  0  0
 20 22  1  0  0  0  0
 20 23  1  0  0  0  0
 23 24  2  0  0  0  0
 24 25  1  0  0  0  0
 25 26  1  0  0  0  0
 25 27  1  0  0  0  0
 27 28  1  0  0  0  0
 27 32  1  0  0  0  0
 28 29  1  0  0  0  0
 29 30  1  0  0  0  0
 29 31  2  0  0  0  0
 32 33  1  0  0  0  0
 32 34  1  0  0  0  0
 32 51  1  0  0  0  0
 34 35  1  0  0  0  0
 35 36  1  0  0  0  0
 35 37  1  0  0  0  0
 35 41  1  0  0  0  0
 37 38  1  0  0  0  0
 38 39  1  0  0  0  0
 38 40  2  0  0  0  0
 41 42  1  0  0  0  0
 41 51  1  0  0  0  0
 42 43  1  0  0  0  0
 43 44  2  0  0  0  0
 43 45  1  0  0  0  0
 45 46  2  0  0  0  0
 45 50  1  0  0  0  0
 46 47  1  0  0  0  0
 47 48  2  0  0  0  0
 48 49  1  0  0  0  0
 49 50  2  0  0  0  0
 51 52  1  0  0  0  0
 52 53  1  0  0  0  0
 52 57  1  0  0  0  0
 53 54  1  0  0  0  0
 54 55  1  0  0  0  0
 54 56  2  0  0  0  0
 57 58  2  0  0  0  0
M  END
$$$$

 OpenBabel12191814062D

 53 55  0  0  0  0  0  0  0  0999 V2000
    7.9476    2.8641    0.0000 C   0  0  0  0  0  0  0  0  0  0  0  0
    7.1482    2.6602    0.0000 C   0  0  0  0  0  0  0  0  0  0  0  0
    6.5720    3.2505    0.0000 C   0  0  0  0  0  0  0  0  0  0  0  0
    6.9251    1.8659    0.0000 C   0  0  0  0  0  0  0  0  0  0  0  0
    7.5014    1.2756    0.0000 O   0  0  0  0  0  0  0  0  0  0  0  0
    6.1257    1.6620    0.0000 O   0  0  0  0  0  0  0  0  0  0  0  0
    5.9025    0.8678    0.0000 C   0  0  3  0  0  0  0  0  0  0  0  0
    6.6120    0.4467    0.0000 C   0  0  3  0  0  0  0  0  0  0  0  0
    7.2023    1.0230    0.0000 O   0  0  0  0  0  0  0  0  0  0  0  0
    7.0158   -0.2727    0.0000 C   0  0  3  0  0  0  0  0  0  0  0  0
    7.8152   -0.0688    0.0000 O   0  0  0  0  0  0  0  0  0  0  0  0
    8.0384    0.7254    0.0000 C   0  0  0  0  0  0  0  0  0  0  0  0
    7.9192    1.5418    0.0000 C   0  0  0  0  0  0  0  0  0  0  0  0
    8.8378    0.9293    0.0000 O   0  0  0  0  0  0  0  0  0  0  0  0
    7.0058   -1.0977    0.0000 C   0  0  0  0  0  0  0  0  0  0  0  0
    7.2786   -1.8763    0.0000 C   0  0  0  0  0  0  0  0  0  0  0  0
    7.8200   -0.9642    0.0000 C   0  0  0  0  0  0  0  0  0  0  0  0
    6.2864   -1.5015    0.0000 C   0  0  0  0  0  0  0  0  0  0  0  0
    5.8653   -2.2109    0.0000 C   0  0  0  0  0  0  0  0  0  0  0  0
    5.0404   -2.2010    0.0000 C   0  0  3  0  0  0  0  0  0  0  0  0
    4.8172   -2.9952    0.0000 C   0  0  0  0  0  0  0  0  0  0  0  0
    4.3310   -1.7798    0.0000 C   0  0  3  0  0  0  0  0  0  0  0  0
    3.7406   -2.3561    0.0000 O   0  0  0  0  0  0  0  0  0  0  0  0
    3.9445   -3.1555    0.0000 C   0  0  0  0  0  0  0  0  0  0  0  0
    4.7387   -3.3787    0.0000 C   0  0  0  0  0  0  0  0  0  0  0  0
    3.3541   -3.7318    0.0000 O   0  0  0  0  0  0  0  0  0  0  0  0
    3.9271   -1.0604    0.0000 C   0  0  3  0  0  0  0  0  0  0  0  0
    3.6222   -1.8270    0.0000 O   0  0  0  0  0  0  0  0  0  0  0  0
    3.1395   -1.3059    0.0000 C   0  0  0  0  0  0  0  0  0  0  0  0
    2.6626   -0.6326    0.0000 C   0  0  3  0  0  0  0  0  0  0  0  0
    2.0563   -0.0732    0.0000 C   0  0  0  0  0  0  0  0  0  0  0  0
    2.0429   -1.1772    0.0000 O   0  0  0  0  0  0  0  0  0  0  0  0
    1.2614   -0.9128    0.0000 C   0  0  0  0  0  0  0  0  0  0  0  0
    0.6417   -1.4574    0.0000 C   0  0  0  0  0  0  0  0  0  0  0  0
    1.0997   -0.1038    0.0000 O   0  0  0  0  0  0  0  0  0  0  0  0
    3.1556    0.0289    0.0000 C   0  0  3  0  0  0  0  0  0  0  0  0
    2.9102    0.8165    0.0000 O   0  0  0  0  0  0  0  0  0  0  0  0
    2.1053    0.9978    0.0000 C   0  0  0  0  0  0  0  0  0  0  0  0
    1.5459    0.3914    0.0000 O   0  0  0  0  0  0  0  0  0  0  0  0
    1.8599    1.7855    0.0000 C   0  0  0  0  0  0  0  0  0  0  0  0
    1.0550    1.9667    0.0000 C   0  0  0  0  0  0  0  0  0  0  0  0
    0.8096    2.7544    0.0000 C   0  0  0  0  0  0  0  0  0  0  0  0
    1.3690    3.3607    0.0000 C   0  0  0  0  0  0  0  0  0  0  0  0
    2.1739    3.1795    0.0000 C   0  0  0  0  0  0  0  0  0  0  0  0
    2.4193    2.3918    0.0000 C   0  0  0  0  0  0  0  0  0  0  0  0
    3.9371   -0.2355    0.0000 C   0  0  3  0  0  0  0  0  0  0  0  0
    4.3582    0.4739    0.0000 C   0  0  3  0  0  0  0  0  0  0  0  0
    3.7819    1.0643    0.0000 O   0  0  0  0  0  0  0  0  0  0  0  0
    4.0051    1.8585    0.0000 C   0  0  0  0  0  0  0  0  0  0  0  0
    3.4288    2.4489    0.0000 C   0  0  0  0  0  0  0  0  0  0  0  0
    4.8045    2.0624    0.0000 O   0  0  0  0  0  0  0  0  0  0  0  0
    5.0776    0.8778    0.0000 C   0  0  0  0  0  0  0  0  0  0  0  0
    4.8737    1.6772    0.0000 C   0  0  0  0  0  0  0  0  0  0  0  0
  1  2  1  0  0  0  0
  2  3  1  0  0  0  0
  2  4  1  0  0  0  0
  4  5  2  0  0  0  0
  4  6  1  0  0  0  0
  6  7  1  0  0  0  0
  7  8  1  0  0  0  0
  7 52  1  0  0  0  0
  8  9  1  0  0  0  0
  8 10  1  0  0  0  0
 10 11  1  0  0  0  0
 10 15  1  0  0  0  0
 11 12  1  0  0  0  0
 12 13  1  0  0  0  0
 12 14  2  0  0  0  0
 15 16  1  0  0  0  0
 15 17  1  0  0  0  0
 15 18  1  0  0  0  0
 18 19  2  0  0  0  0
 19 20  1  0  0  0  0
 20 21  1  0  0  0  0
 20 22  1  0  0  0  0
 22 23  1  0  0  0  0
 22 27  1  0  0  0  0
 23 24  1  0  0  0  0
 24 25  1  0  0  0  0
 24 26  2  0  0  0  0
 27 28  1  0  0  0  0
 27 29  1  0  0  0  0
 27 46  1  0  0  0  0
 29 30  1  0  0  0  0
 30 31  1  0  0  0  0
 30 32  1  0  0  0  0
 30 36  1  0  0  0  0
 32 33  1  0  0  0  0
 33 34  1  0  0  0  0
 33 35  2  0  0  0  0
 36 37  1  0  0  0  0
 36 46  1  0  0  0  0
 37 38  1  0  0  0  0
 38 39  2  0  0  0  0
 38 40  1  0  0  0  0
 40 41  2  0  0  0  0
 40 45  1  0  0  0  0
 41 42  1  0  0  0  0
 42 43  2  0  0  0  0
 43 44  1  0  0  0  0
 44 45  2  0  0  0  0
 46 47  1  0  0  0  0
 47 48  1  0  0  0  0
 47 52  1  0  0  0  0
 48 49  1  0  0  0  0
 49 50  1  0  0  0  0
 49 51  2  0  0  0  0
 52 53  2  0  0  0  0
M  END
$$$$

 OpenBabel12191814062D

 54 56  0  0  0  0  0  0  0  0999 V2000
    3.0962    5.2466    0.0000 C   0  0  0  0  0  0  0  0  0  0  0  0
    3.9091    5.1057    0.0000 C   0  0  0  0  0  0  0  0  0  0  0  0
    4.4375    5.7393    0.0000 C   0  0  0  0  0  0  0  0  0  0  0  0
    4.5112    4.1844    0.0000 C   0  0  0  0  0  0  0  0  0  0  0  0
    5.1534    4.5082    0.0000 O   0  0  0  0  0  0  0  0  0  0  0  0
    3.6652    3.6978    0.0000 O   0  0  0  0  0  0  0  0  0  0  0  0
    3.9497    2.9234    0.0000 C   0  0  3  0  0  0  0  0  0  0  0  0
    4.7626    2.7825    0.0000 C   0  0  3  0  0  0  0  0  0  0  0  0
    5.2910    3.4161    0.0000 O   0  0  0  0  0  0  0  0  0  0  0  0
    5.0065    4.1905    0.0000 C   0  0  0  0  0  0  0  0  0  0  0  0
    4.1936    4.3313    0.0000 O   0  0  0  0  0  0  0  0  0  0  0  0
    5.5349    4.8241    0.0000 C   0  0  0  0  0  0  0  0  0  0  0  0
    5.2504    5.5985    0.0000 C   0  0  0  0  0  0  0  0  0  0  0  0
    6.3478    4.6833    0.0000 C   0  0  0  0  0  0  0  0  0  0  0  0
    5.0470    2.0081    0.0000 C   0  0  0  0  0  0  0  0  0  0  0  0
    4.5186    1.3746    0.0000 C   0  0  0  0  0  0  0  0  0  0  0  0
    5.8599    1.8673    0.0000 C   0  0  3  0  0  0  0  0  0  0  0  0
    6.3883    2.5009    0.0000 O   0  0  0  0  0  0  0  0  0  0  0  0
    7.2012    2.3601    0.0000 C   0  0  0  0  0  0  0  0  0  0  0  0
    7.7296    2.9937    0.0000 C   0  0  0  0  0  0  0  0  0  0  0  0
    7.4857    1.5857    0.0000 O   0  0  0  0  0  0  0  0  0  0  0  0
    6.1444    1.0929    0.0000 C   0  0  3  0  0  0  0  0  0  0  0  0
    6.9103    0.7862    0.0000 C   0  0  3  0  0  0  0  0  0  0  0  0
    7.6086    1.2255    0.0000 O   0  0  0  0  0  0  0  0  0  0  0  0
    8.3382    0.8403    0.0000 C   0  0  0  0  0  0  0  0  0  0  0  0
    9.0365    1.2796    0.0000 C   0  0  0  0  0  0  0  0  0  0  0  0
    8.3695    0.0159    0.0000 O   0  0  0  0  0  0  0  0  0  0  0  0
    6.8552   -0.0370    0.0000 C   0  0  3  0  0  0  0  0  0  0  0  0
    7.6796   -0.0057    0.0000 C   0  0  0  0  0  0  0  0  0  0  0  0
    6.0553   -0.2390    0.0000 C   0  0  0  0  0  0  0  0  0  0  0  0
    5.6160    0.4594    0.0000 C   0  0  3  0  0  0  0  0  0  0  0  0
    5.1567   -0.2260    0.0000 O   0  0  0  0  0  0  0  0  0  0  0  0
    5.5206   -0.9664    0.0000 C   0  0  0  0  0  0  0  0  0  0  0  0
    6.3438   -1.0215    0.0000 C   0  0  0  0  0  0  0  0  0  0  0  0
    5.0613   -1.6517    0.0000 O   0  0  0  0  0  0  0  0  0  0  0  0
    4.8031    0.6002    0.0000 C   0  0  0  0  0  0  0  0  0  0  0  0
    4.1178    1.0595    0.0000 O   0  0  0  0  0  0  0  0  0  0  0  0
    4.2747   -0.0334    0.0000 C   0  0  3  0  0  0  0  0  0  0  0  0
    4.5592   -0.8078    0.0000 C   0  0  0  0  0  0  0  0  0  0  0  0
    3.4618    0.1074    0.0000 C   0  0  3  0  0  0  0  0  0  0  0  0
    2.6489    0.2482    0.0000 O   0  0  0  0  0  0  0  0  0  0  0  0
    3.1773    0.8818    0.0000 C   0  0  3  0  0  0  0  0  0  0  0  0
    3.7057    1.5154    0.0000 C   0  0  0  0  0  0  0  0  0  0  0  0
    2.9900    1.9258    0.0000 C   0  0  0  0  0  0  0  0  0  0  0  0
    2.8937    1.3697    0.0000 C   0  0  0  0  0  0  0  0  0  0  0  0
    3.4213    2.2898    0.0000 C   0  0  3  0  0  0  0  0  0  0  0  0
    2.6084    2.4306    0.0000 O   0  0  0  0  0  0  0  0  0  0  0  0
    2.3239    3.2050    0.0000 C   0  0  0  0  0  0  0  0  0  0  0  0
    1.5110    3.3458    0.0000 C   0  0  0  0  0  0  0  0  0  0  0  0
    2.8523    3.8386    0.0000 O   0  0  0  0  0  0  0  0  0  0  0  0
    6.9725   -0.8536    0.0000 O   0  0  0  0  0  0  0  0  0  0  0  0
    7.7383   -1.1604    0.0000 C   0  0  0  0  0  0  0  0  0  0  0  0
    8.3869   -0.6505    0.0000 C   0  0  0  0  0  0  0  0  0  0  0  0
    7.8556   -1.9770    0.0000 O   0  0  0  0  0  0  0  0  0  0  0  0
  1  2  1  0  0  0  0
  2  3  1  0  0  0  0
  2  4  1  0  0  0  0
  4  5  2  0  0  0  0
  4  6  1  0  0  0  0
  6  7  1  0  0  0  0
  7  8  1  0  0  0  0
  7 46  1  0  0  0  0
  8  9  1  0  0  0  0
  8 15  1  0  0  0  0
  9 10  1  0  0  0  0
 10 11  2  0  0  0  0
 10 12  1  0  0  0  0
 12 13  1  0  0  0  0
 12 14  1  0  0  0  0
 15 16  2  0  0  0  0
 15 17  1  0  0  0  0
 17 18  1  0  0  0  0
 17 22  1  0  0  0  0
 18 19  1  0  0  0  0
 19 20  1  0  0  0  0
 19 21  2  0  0  0  0
 22 23  1  0  0  0  0
 22 31  1  0  0  0  0
 23 24  1  0  0  0  0
 23 28  1  0  0  0  0
 24 25  1  0  0  0  0
 25 26  1  0  0  0  0
 25 27  2  0  0  0  0
 28 29  1  0  0  0  0
 28 30  1  0  0  0  0
 28 51  1  0  0  0  0
 30 31  1  0  0  0  0
 31 32  1  0  0  0  0
 31 36  1  0  0  0  0
 32 33  1  0  0  0  0
 33 34  1  0  0  0  0
 33 35  2  0  0  0  0
 36 37  2  0  0  0  0
 36 38  1  0  0  0  0
 38 39  1  0  0  0  0
 38 40  1  0  0  0  0
 40 41  1  0  0  0  0
 40 42  1  0  0  0  0
 41 42  1  0  0  0  0
 42 43  1  0  0  0  0
 43 44  1  0  0  0  0
 43 45  1  0  0  0  0
 43 46  1  0  0  0  0
 46 47  1  0  0  0  0
 47 48  1  0  0  0  0
 48 49  1  0  0  0  0
 48 50  2  0  0  0  0
 51 52  1  0  0  0  0
 52 53  1  0  0  0  0
 52 54  2  0  0  0  0
M  END
$$$$

 OpenBabel12191814062D

 51 52  0  0  0  0  0  0  0  0999 V2000
    6.5720    3.2505    0.0000 C   0  0  0  0  0  0  0  0  0  0  0  0
    5.7725    3.0467    0.0000 C   0  0  0  0  0  0  0  0  0  0  0  0
    5.1963    3.6370    0.0000 C   0  0  0  0  0  0  0  0  0  0  0  0
    5.5494    2.2524    0.0000 C   0  0  0  0  0  0  0  0  0  0  0  0
    4.7500    2.0485    0.0000 O   0  0  0  0  0  0  0  0  0  0  0  0
    6.1257    1.6620    0.0000 O   0  0  0  0  0  0  0  0  0  0  0  0
    5.9025    0.8678    0.0000 C   0  0  3  0  0  0  0  0  0  0  0  0
    6.6120    0.4467    0.0000 C   0  0  3  0  0  0  0  0  0  0  0  0
    7.2023    1.0230    0.0000 O   0  0  0  0  0  0  0  0  0  0  0  0
    6.9985    1.8224    0.0000 C   0  0  0  0  0  0  0  0  0  0  0  0
    6.2042    2.0455    0.0000 C   0  0  0  0  0  0  0  0  0  0  0  0
    7.5888    2.3986    0.0000 O   0  0  0  0  0  0  0  0  0  0  0  0
    7.0158   -0.2727    0.0000 C   0  0  3  0  0  0  0  0  0  0  0  0
    7.8152   -0.0688    0.0000 O   0  0  0  0  0  0  0  0  0  0  0  0
    8.0384    0.7254    0.0000 C   0  0  0  0  0  0  0  0  0  0  0  0
    7.4621    1.3158    0.0000 C   0  0  0  0  0  0  0  0  0  0  0  0
    8.8378    0.9293    0.0000 O   0  0  0  0  0  0  0  0  0  0  0  0
    7.0058   -1.0977    0.0000 C   0  0  0  0  0  0  0  0  0  0  0  0
    7.2786   -1.8763    0.0000 C   0  0  0  0  0  0  0  0  0  0  0  0
    7.8200   -0.9642    0.0000 C   0  0  0  0  0  0  0  0  0  0  0  0
    6.2864   -1.5015    0.0000 C   0  0  0  0  0  0  0  0  0  0  0  0
    5.8653   -2.2109    0.0000 C   0  0  0  0  0  0  0  0  0  0  0  0
    5.0404   -2.2010    0.0000 C   0  0  3  0  0  0  0  0  0  0  0  0
    4.8172   -2.9952    0.0000 C   0  0  0  0  0  0  0  0  0  0  0  0
    4.3310   -1.7798    0.0000 C   0  0  0  0  0  0  0  0  0  0  0  0
    3.7406   -2.3561    0.0000 O   0  0  0  0  0  0  0  0  0  0  0  0
    3.9271   -1.0604    0.0000 C   0  0  3  0  0  0  0  0  0  0  0  0
    3.1395   -1.3059    0.0000 C   0  0  0  0  0  0  0  0  0  0  0  0
    2.6626   -0.6326    0.0000 C   0  0  3  0  0  0  0  0  0  0  0  0
    2.0563   -0.0732    0.0000 C   0  0  0  0  0  0  0  0  0  0  0  0
    2.0429   -1.1772    0.0000 O   0  0  0  0  0  0  0  0  0  0  0  0
    1.2614   -0.9128    0.0000 C   0  0  0  0  0  0  0  0  0  0  0  0
    0.6417   -1.4574    0.0000 C   0  0  0  0  0  0  0  0  0  0  0  0
    1.0997   -0.1038    0.0000 O   0  0  0  0  0  0  0  0  0  0  0  0
    3.1556    0.0289    0.0000 C   0  0  3  0  0  0  0  0  0  0  0  0
    2.9102    0.8165    0.0000 O   0  0  0  0  0  0  0  0  0  0  0  0
    2.1053    0.9978    0.0000 C   0  0  0  0  0  0  0  0  0  0  0  0
    1.5459    0.3914    0.0000 C   0  0  0  0  0  0  0  0  0  0  0  0
    1.8599    1.7855    0.0000 O   0  0  0  0  0  0  0  0  0  0  0  0
    3.9371   -0.2355    0.0000 C   0  0  3  0  0  0  0  0  0  0  0  0
    4.3582    0.4739    0.0000 C   0  0  3  0  0  0  0  0  0  0  0  0
    3.7819    1.0643    0.0000 O   0  0  0  0  0  0  0  0  0  0  0  0
    4.0051    1.8585    0.0000 C   0  0  0  0  0  0  0  0  0  0  0  0
    3.4288    2.4489    0.0000 C   0  0  0  0  0  0  0  0  0  0  0  0
    4.5320    2.4934    0.0000 O   0  0  0  0  0  0  0  0  0  0  0  0
    5.0776    0.8778    0.0000 C   0  0  0  0  0  0  0  0  0  0  0  0
    4.8737    1.6772    0.0000 C   0  0  0  0  0  0  0  0  0  0  0  0
    3.6222   -1.8270    0.0000 O   0  0  0  0  0  0  0  0  0  0  0  0
    2.8058   -1.9462    0.0000 C   0  0  0  0  0  0  0  0  0  0  0  0
    2.5009   -2.7128    0.0000 C   0  0  0  0  0  0  0  0  0  0  0  0
    2.2944   -1.2988    0.0000 O   0  0  0  0  0  0  0  0  0  0  0  0
  1  2  1  0  0  0  0
  2  3  1  0  0  0  0
  2  4  1  0  0  0  0
  4  5  2  0  0  0  0
  4  6  1  0  0  0  0
  6  7  1  0  0  0  0
  7  8  1  0  0  0  0
  7 46  1  0  0  0  0
  8  9  1  0  0  0  0
  8 13  1  0  0  0  0
  9 10  1  0  0  0  0
 10 11  1  0  0  0  0
 10 12  2  0  0  0  0
 13 14  1  0  0  0  0
 13 18  1  0  0  0  0
 14 15  1  0  0  0  0
 15 16  1  0  0  0  0
 15 17  2  0  0  0  0
 18 19  1  0  0  0  0
 18 20  1  0  0  0  0
 18 21  1  0  0  0  0
 21 22  2  0  0  0  0
 22 23  1  0  0  0  0
 23 24  1  0  0  0  0
 23 25  1  0  0  0  0
 25 26  2  0  0  0  0
 25 27  1  0  0  0  0
 27 28  1  0  0  0  0
 27 40  1  0  0  0  0
 27 48  1  0  0  0  0
 28 29  1  0  0  0  0
 29 30  1  0  0  0  0
 29 31  1  0  0  0  0
 29 35  1  0  0  0  0
 31 32  1  0  0  0  0
 32 33  1  0  0  0  0
 32 34  2  0  0  0  0
 35 36  1  0  0  0  0
 35 40  1  0  0  0  0
 36 37  1  0  0  0  0
 37 38  1  0  0  0  0
 37 39  2  0  0  0  0
 40 41  1  0  0  0  0
 41 42  1  0  0  0  0
 41 46  1  0  0  0  0
 42 43  1  0  0  0  0
 43 44  1  0  0  0  0
 43 45  2  0  0  0  0
 46 47  2  0  0  0  0
 48 49  1  0  0  0  0
 49 50  1  0  0  0  0
 49 51  2  0  0  0  0
M  END
$$$$

 OpenBabel12191814062D

 53 55  0  0  0  0  0  0  0  0999 V2000
    6.5720    3.2505    0.0000 C   0  0  0  0  0  0  0  0  0  0  0  0
    5.7725    3.0467    0.0000 C   0  0  0  0  0  0  0  0  0  0  0  0
    5.1963    3.6370    0.0000 C   0  0  0  0  0  0  0  0  0  0  0  0
    5.5494    2.2524    0.0000 C   0  0  0  0  0  0  0  0  0  0  0  0
    4.7500    2.0485    0.0000 O   0  0  0  0  0  0  0  0  0  0  0  0
    6.1257    1.6620    0.0000 O   0  0  0  0  0  0  0  0  0  0  0  0
    5.9025    0.8678    0.0000 C   0  0  3  0  0  0  0  0  0  0  0  0
    6.6120    0.4467    0.0000 C   0  0  3  0  0  0  0  0  0  0  0  0
    7.2023    1.0230    0.0000 O   0  0  0  0  0  0  0  0  0  0  0  0
    6.9985    1.8224    0.0000 C   0  0  0  0  0  0  0  0  0  0  0  0
    6.2042    2.0455    0.0000 C   0  0  0  0  0  0  0  0  0  0  0  0
    7.5888    2.3986    0.0000 O   0  0  0  0  0  0  0  0  0  0  0  0
    7.0158   -0.2727    0.0000 C   0  0  3  0  0  0  0  0  0  0  0  0
    7.8152   -0.0688    0.0000 O   0  0  0  0  0  0  0  0  0  0  0  0
    8.0384    0.7254    0.0000 C   0  0  0  0  0  0  0  0  0  0  0  0
    7.4621    1.3158    0.0000 C   0  0  0  0  0  0  0  0  0  0  0  0
    8.8378    0.9293    0.0000 O   0  0  0  0  0  0  0  0  0  0  0  0
    7.0058   -1.0977    0.0000 C   0  0  0  0  0  0  0  0  0  0  0  0
    7.2786   -1.8763    0.0000 C   0  0  0  0  0  0  0  0  0  0  0  0
    7.8200   -0.9642    0.0000 C   0  0  0  0  0  0  0  0  0  0  0  0
    6.2864   -1.5015    0.0000 C   0  0  0  0  0  0  0  0  0  0  0  0
    5.8653   -2.2109    0.0000 C   0  0  0  0  0  0  0  0  0  0  0  0
    5.0404   -2.2010    0.0000 C   0  0  3  0  0  0  0  0  0  0  0  0
    4.8172   -2.9952    0.0000 C   0  0  0  0  0  0  0  0  0  0  0  0
    4.3310   -1.7798    0.0000 C   0  0  0  0  0  0  0  0  0  0  0  0
    3.7406   -2.3561    0.0000 O   0  0  0  0  0  0  0  0  0  0  0  0
    3.9271   -1.0604    0.0000 C   0  0  3  0  0  0  0  0  0  0  0  0
    3.6222   -1.8270    0.0000 O   0  0  0  0  0  0  0  0  0  0  0  0
    3.1395   -1.3059    0.0000 C   0  0  0  0  0  0  0  0  0  0  0  0
    2.6626   -0.6326    0.0000 C   0  0  3  0  0  0  0  0  0  0  0  0
    2.0563   -0.0732    0.0000 C   0  0  0  0  0  0  0  0  0  0  0  0
    2.0429   -1.1772    0.0000 O   0  0  0  0  0  0  0  0  0  0  0  0
    1.2614   -0.9128    0.0000 C   0  0  0  0  0  0  0  0  0  0  0  0
    0.6417   -1.4574    0.0000 C   0  0  0  0  0  0  0  0  0  0  0  0
    1.0997   -0.1038    0.0000 O   0  0  0  0  0  0  0  0  0  0  0  0
    3.1556    0.0289    0.0000 C   0  0  3  0  0  0  0  0  0  0  0  0
    2.9102    0.8165    0.0000 O   0  0  0  0  0  0  0  0  0  0  0  0
    2.1053    0.9978    0.0000 C   0  0  0  0  0  0  0  0  0  0  0  0
    1.5459    0.3914    0.0000 O   0  0  0  0  0  0  0  0  0  0  0  0
    1.8599    1.7855    0.0000 C   0  0  0  0  0  0  0  0  0  0  0  0
    1.0550    1.9667    0.0000 C   0  0  0  0  0  0  0  0  0  0  0  0
    0.8096    2.7544    0.0000 C   0  0  0  0  0  0  0  0  0  0  0  0
    1.3690    3.3607    0.0000 C   0  0  0  0  0  0  0  0  0  0  0  0
    2.1739    3.1795    0.0000 N   0  0  0  0  0  0  0  0  0  0  0  0
    2.4193    2.3918    0.0000 C   0  0  0  0  0  0  0  0  0  0  0  0
    3.9371   -0.2355    0.0000 C   0  0  3  0  0  0  0  0  0  0  0  0
    4.3582    0.4739    0.0000 C   0  0  3  0  0  0  0  0  0  0  0  0
    3.7819    1.0643    0.0000 O   0  0  0  0  0  0  0  0  0  0  0  0
    4.0051    1.8585    0.0000 C   0  0  0  0  0  0  0  0  0  0  0  0
    3.4288    2.4489    0.0000 C   0  0  0  0  0  0  0  0  0  0  0  0
    4.5320    2.4934    0.0000 O   0  0  0  0  0  0  0  0  0  0  0  0
    5.0776    0.8778    0.0000 C   0  0  0  0  0  0  0  0  0  0  0  0
    4.8737    1.6772    0.0000 C   0  0  0  0  0  0  0  0  0  0  0  0
  1  2  1  0  0  0  0
  2  3  1  0  0  0  0
  2  4  1  0  0  0  0
  4  5  2  0  0  0  0
  4  6  1  0  0  0  0
  6  7  1  0  0  0  0
  7  8  1  0  0  0  0
  7 52  1  0  0  0  0
  8  9  1  0  0  0  0
  8 13  1  0  0  0  0
  9 10  1  0  0  0  0
 10 11  1  0  0  0  0
 10 12  2  0  0  0  0
 13 14  1  0  0  0  0
 13 18  1  0  0  0  0
 14 15  1  0  0  0  0
 15 16  1  0  0  0  0
 15 17  2  0  0  0  0
 18 19  1  0  0  0  0
 18 20  1  0  0  0  0
 18 21  1  0  0  0  0
 21 22  2  0  0  0  0
 22 23  1  0  0  0  0
 23 24  1  0  0  0  0
 23 25  1  0  0  0  0
 25 26  2  0  0  0  0
 25 27  1  0  0  0  0
 27 28  1  0  0  0  0
 27 29  1  0  0  0  0
 27 46  1  0  0  0  0
 29 30  1  0  0  0  0
 30 31  1  0  0  0  0
 30 32  1  0  0  0  0
 30 36  1  0  0  0  0
 32 33  1  0  0  0  0
 33 34  1  0  0  0  0
 33 35  2  0  0  0  0
 36 37  1  0  0  0  0
 36 46  1  0  0  0  0
 37 38  1  0  0  0  0
 38 39  2  0  0  0  0
 38 40  1  0  0  0  0
 40 41  2  0  0  0  0
 40 45  1  0  0  0  0
 41 42  1  0  0  0  0
 42 43  2  0  0  0  0
 43 44  1  0  0  0  0
 44 45  2  0  0  0  0
 46 47  1  0  0  0  0
 47 48  1  0  0  0  0
 47 52  1  0  0  0  0
 48 49  1  0  0  0  0
 49 50  1  0  0  0  0
 49 51  2  0  0  0  0
 52 53  2  0  0  0  0
M  END
$$$$

 OpenBabel12191814062D

 55 57  0  0  0  0  0  0  0  0999 V2000
    1.9045   -7.3710    0.0000 C   0  0  0  0  0  0  0  0  0  0  0  0
    2.3539   -6.6791    0.0000 C   0  0  0  0  0  0  0  0  0  0  0  0
    3.1777   -6.7223    0.0000 C   0  0  0  0  0  0  0  0  0  0  0  0
    1.9793   -5.9440    0.0000 C   0  0  0  0  0  0  0  0  0  0  0  0
    2.4287   -5.2521    0.0000 O   0  0  0  0  0  0  0  0  0  0  0  0
    1.1555   -5.9008    0.0000 O   0  0  0  0  0  0  0  0  0  0  0  0
    0.7809   -5.1658    0.0000 C   0  0  3  0  0  0  0  0  0  0  0  0
   -0.0261   -5.3373    0.0000 C   0  0  3  0  0  0  0  0  0  0  0  0
   -0.0692   -6.1612    0.0000 O   0  0  0  0  0  0  0  0  0  0  0  0
    0.6227   -6.6105    0.0000 C   0  0  0  0  0  0  0  0  0  0  0  0
    0.5795   -7.4343    0.0000 C   0  0  0  0  0  0  0  0  0  0  0  0
    1.3578   -6.2359    0.0000 O   0  0  0  0  0  0  0  0  0  0  0  0
   -0.8107   -5.0823    0.0000 C   0  0  3  0  0  0  0  0  0  0  0  0
   -1.2600   -5.7742    0.0000 O   0  0  0  0  0  0  0  0  0  0  0  0
   -0.8855   -6.5093    0.0000 C   0  0  0  0  0  0  0  0  0  0  0  0
   -1.3348   -7.2012    0.0000 C   0  0  0  0  0  0  0  0  0  0  0  0
   -0.0616   -6.5525    0.0000 O   0  0  0  0  0  0  0  0  0  0  0  0
   -1.3627   -4.4692    0.0000 C   0  0  0  0  0  0  0  0  0  0  0  0
   -2.0911   -4.0819    0.0000 C   0  0  0  0  0  0  0  0  0  0  0  0
   -1.8706   -5.1194    0.0000 C   0  0  0  0  0  0  0  0  0  0  0  0
   -1.1078   -3.6846    0.0000 C   0  0  0  0  0  0  0  0  0  0  0  0
   -1.2793   -2.8777    0.0000 C   0  0  0  0  0  0  0  0  0  0  0  0
   -0.6662   -2.3256    0.0000 C   0  0  3  0  0  0  0  0  0  0  0  0
   -1.0407   -1.5905    0.0000 C   0  0  0  0  0  0  0  0  0  0  0  0
    0.1408   -2.1541    0.0000 C   0  0  0  0  0  0  0  0  0  0  0  0
    0.1839   -1.3302    0.0000 O   0  0  0  0  0  0  0  0  0  0  0  0
    0.9254   -2.4090    0.0000 C   0  0  3  0  0  0  0  0  0  0  0  0
    0.6297   -1.6388    0.0000 O   0  0  0  0  0  0  0  0  0  0  0  0
    1.3379   -1.6946    0.0000 C   0  0  0  0  0  0  0  0  0  0  0  0
    2.1449   -1.8661    0.0000 C   0  0  3  0  0  0  0  0  0  0  0  0
    2.9699   -1.8661    0.0000 C   0  0  0  0  0  0  0  0  0  0  0  0
    2.2311   -1.0456    0.0000 O   0  0  0  0  0  0  0  0  0  0  0  0
    2.9848   -0.7101    0.0000 C   0  0  0  0  0  0  0  0  0  0  0  0
    3.0710    0.1104    0.0000 C   0  0  0  0  0  0  0  0  0  0  0  0
    3.6522   -1.1950    0.0000 O   0  0  0  0  0  0  0  0  0  0  0  0
    2.2311   -2.6866    0.0000 C   0  0  3  0  0  0  0  0  0  0  0  0
    2.9456   -3.0991    0.0000 O   0  0  0  0  0  0  0  0  0  0  0  0
    3.6600   -2.6866    0.0000 C   0  0  0  0  0  0  0  0  0  0  0  0
    3.6600   -1.8616    0.0000 O   0  0  0  0  0  0  0  0  0  0  0  0
    4.3745   -3.0991    0.0000 C   0  0  0  0  0  0  0  0  0  0  0  0
    5.0890   -2.6866    0.0000 O   0  0  0  0  0  0  0  0  0  0  0  0
    5.8035   -3.0991    0.0000 C   0  0  0  0  0  0  0  0  0  0  0  0
    6.5179   -2.6866    0.0000 C   0  0  0  0  0  0  0  0  0  0  0  0
    7.2324   -3.0991    0.0000 C   0  0  0  0  0  0  0  0  0  0  0  0
    7.2324   -3.9241    0.0000 C   0  0  0  0  0  0  0  0  0  0  0  0
    6.5179   -4.3366    0.0000 C   0  0  0  0  0  0  0  0  0  0  0  0
    5.8035   -3.9241    0.0000 C   0  0  0  0  0  0  0  0  0  0  0  0
    1.4774   -3.0221    0.0000 C   0  0  3  0  0  0  0  0  0  0  0  0
    1.6490   -3.8291    0.0000 C   0  0  3  0  0  0  0  0  0  0  0  0
    2.4728   -3.8723    0.0000 O   0  0  0  0  0  0  0  0  0  0  0  0
    2.8474   -4.6074    0.0000 C   0  0  0  0  0  0  0  0  0  0  0  0
    3.6712   -4.6505    0.0000 C   0  0  0  0  0  0  0  0  0  0  0  0
    2.8905   -5.4312    0.0000 O   0  0  0  0  0  0  0  0  0  0  0  0
    1.3940   -4.6137    0.0000 C   0  0  0  0  0  0  0  0  0  0  0  0
    2.0859   -5.0630    0.0000 C   0  0  0  0  0  0  0  0  0  0  0  0
  1  2  1  0  0  0  0
  2  3  1  0  0  0  0
  2  4  1  0  0  0  0
  4  5  2  0  0  0  0
  4  6  1  0  0  0  0
  6  7  1  0  0  0  0
  7  8  1  0  0  0  0
  7 54  1  0  0  0  0
  8  9  1  0  0  0  0
  8 13  1  0  0  0  0
  9 10  1  0  0  0  0
 10 11  1  0  0  0  0
 10 12  2  0  0  0  0
 13 14  1  0  0  0  0
 13 18  1  0  0  0  0
 14 15  1  0  0  0  0
 15 16  1  0  0  0  0
 15 17  2  0  0  0  0
 18 19  1  0  0  0  0
 18 20  1  0  0  0  0
 18 21  1  0  0  0  0
 21 22  2  0  0  0  0
 22 23  1  0  0  0  0
 23 24  1  0  0  0  0
 23 25  1  0  0  0  0
 25 26  2  0  0  0  0
 25 27  1  0  0  0  0
 27 28  1  0  0  0  0
 27 29  1  0  0  0  0
 27 48  1  0  0  0  0
 29 30  1  0  0  0  0
 30 31  1  0  0  0  0
 30 32  1  0  0  0  0
 30 36  1  0  0  0  0
 32 33  1  0  0  0  0
 33 34  1  0  0  0  0
 33 35  2  0  0  0  0
 36 37  1  0  0  0  0
 36 48  1  0  0  0  0
 37 38  1  0  0  0  0
 38 39  2  0  0  0  0
 38 40  1  0  0  0  0
 40 41  1  0  0  0  0
 41 42  1  0  0  0  0
 42 43  2  0  0  0  0
 42 47  1  0  0  0  0
 43 44  1  0  0  0  0
 44 45  2  0  0  0  0
 45 46  1  0  0  0  0
 46 47  2  0  0  0  0
 48 49  1  0  0  0  0
 49 50  1  0  0  0  0
 49 54  1  0  0  0  0
 50 51  1  0  0  0  0
 51 52  1  0  0  0  0
 51 53  2  0  0  0  0
 54 55  2  0  0  0  0
M  END
$$$$

 OpenBabel12191814062D

 49 51  0  0  0  0  0  0  0  0999 V2000
    6.5720    3.2505    0.0000 C   0  0  0  0  0  0  0  0  0  0  0  0
    5.7725    3.0467    0.0000 C   0  0  0  0  0  0  0  0  0  0  0  0
    5.1963    3.6370    0.0000 C   0  0  0  0  0  0  0  0  0  0  0  0
    5.5494    2.2524    0.0000 C   0  0  0  0  0  0  0  0  0  0  0  0
    4.7500    2.0485    0.0000 O   0  0  0  0  0  0  0  0  0  0  0  0
    6.1257    1.6620    0.0000 O   0  0  0  0  0  0  0  0  0  0  0  0
    5.9025    0.8678    0.0000 C   0  0  3  0  0  0  0  0  0  0  0  0
    6.6120    0.4467    0.0000 C   0  0  3  0  0  0  0  0  0  0  0  0
    7.2023    1.0230    0.0000 O   0  0  0  0  0  0  0  0  0  0  0  0
    6.9985    1.8224    0.0000 C   0  0  0  0  0  0  0  0  0  0  0  0
    7.5888    2.3986    0.0000 C   0  0  0  0  0  0  0  0  0  0  0  0
    6.2042    2.0455    0.0000 O   0  0  0  0  0  0  0  0  0  0  0  0
    7.0158   -0.2727    0.0000 C   0  0  3  0  0  0  0  0  0  0  0  0
    7.8152   -0.0688    0.0000 O   0  0  0  0  0  0  0  0  0  0  0  0
    8.0384    0.7254    0.0000 C   0  0  0  0  0  0  0  0  0  0  0  0
    8.8378    0.9293    0.0000 C   0  0  0  0  0  0  0  0  0  0  0  0
    7.4621    1.3158    0.0000 O   0  0  0  0  0  0  0  0  0  0  0  0
    7.0058   -1.0977    0.0000 C   0  0  0  0  0  0  0  0  0  0  0  0
    7.2786   -1.8763    0.0000 C   0  0  0  0  0  0  0  0  0  0  0  0
    7.8200   -0.9642    0.0000 C   0  0  0  0  0  0  0  0  0  0  0  0
    6.2864   -1.5015    0.0000 C   0  0  0  0  0  0  0  0  0  0  0  0
    5.8653   -2.2109    0.0000 C   0  0  0  0  0  0  0  0  0  0  0  0
    5.0404   -2.2010    0.0000 C   0  0  3  0  0  0  0  0  0  0  0  0
    4.8172   -2.9952    0.0000 C   0  0  0  0  0  0  0  0  0  0  0  0
    4.3310   -1.7798    0.0000 C   0  0  0  0  0  0  0  0  0  0  0  0
    3.7406   -2.3561    0.0000 O   0  0  0  0  0  0  0  0  0  0  0  0
    3.9271   -1.0604    0.0000 C   0  0  3  0  0  0  0  0  0  0  0  0
    3.6222   -1.8270    0.0000 O   0  0  0  0  0  0  0  0  0  0  0  0
    3.1395   -1.3059    0.0000 C   0  0  0  0  0  0  0  0  0  0  0  0
    2.6626   -0.6326    0.0000 C   0  0  3  0  0  0  0  0  0  0  0  0
    1.8377   -0.6227    0.0000 C   0  0  0  0  0  0  0  0  0  0  0  0
    3.1556    0.0289    0.0000 C   0  0  3  0  0  0  0  0  0  0  0  0
    2.9102    0.8165    0.0000 O   0  0  0  0  0  0  0  0  0  0  0  0
    2.1053    0.9978    0.0000 C   0  0  0  0  0  0  0  0  0  0  0  0
    1.5459    0.3914    0.0000 O   0  0  0  0  0  0  0  0  0  0  0  0
    1.8599    1.7855    0.0000 C   0  0  0  0  0  0  0  0  0  0  0  0
    1.0550    1.9667    0.0000 C   0  0  0  0  0  0  0  0  0  0  0  0
    0.8096    2.7544    0.0000 C   0  0  0  0  0  0  0  0  0  0  0  0
    1.3690    3.3607    0.0000 C   0  0  0  0  0  0  0  0  0  0  0  0
    2.1739    3.1795    0.0000 C   0  0  0  0  0  0  0  0  0  0  0  0
    2.4193    2.3918    0.0000 C   0  0  0  0  0  0  0  0  0  0  0  0
    3.9371   -0.2355    0.0000 C   0  0  3  0  0  0  0  0  0  0  0  0
    4.3582    0.4739    0.0000 C   0  0  3  0  0  0  0  0  0  0  0  0
    3.7819    1.0643    0.0000 O   0  0  0  0  0  0  0  0  0  0  0  0
    4.0051    1.8585    0.0000 C   0  0  0  0  0  0  0  0  0  0  0  0
    3.4288    2.4489    0.0000 C   0  0  0  0  0  0  0  0  0  0  0  0
    4.5320    2.4934    0.0000 O   0  0  0  0  0  0  0  0  0  0  0  0
    5.0776    0.8778    0.0000 C   0  0  0  0  0  0  0  0  0  0  0  0
    4.8737    1.6772    0.0000 C   0  0  0  0  0  0  0  0  0  0  0  0
  1  2  1  0  0  0  0
  2  3  1  0  0  0  0
  2  4  1  0  0  0  0
  4  5  2  0  0  0  0
  4  6  1  0  0  0  0
  6  7  1  0  0  0  0
  7  8  1  0  0  0  0
  7 48  1  0  0  0  0
  8  9  1  0  0  0  0
  8 13  1  0  0  0  0
  9 10  1  0  0  0  0
 10 11  1  0  0  0  0
 10 12  2  0  0  0  0
 13 14  1  0  0  0  0
 13 18  1  0  0  0  0
 14 15  1  0  0  0  0
 15 16  1  0  0  0  0
 15 17  2  0  0  0  0
 18 19  1  0  0  0  0
 18 20  1  0  0  0  0
 18 21  1  0  0  0  0
 21 22  2  0  0  0  0
 22 23  1  0  0  0  0
 23 24  1  0  0  0  0
 23 25  1  0  0  0  0
 25 26  2  0  0  0  0
 25 27  1  0  0  0  0
 27 28  1  0  0  0  0
 27 29  1  0  0  0  0
 27 42  1  0  0  0  0
 29 30  1  0  0  0  0
 30 31  1  0  0  0  0
 30 32  1  0  0  0  0
 32 33  1  0  0  0  0
 32 42  1  0  0  0  0
 33 34  1  0  0  0  0
 34 35  2  0  0  0  0
 34 36  1  0  0  0  0
 36 37  2  0  0  0  0
 36 41  1  0  0  0  0
 37 38  1  0  0  0  0
 38 39  2  0  0  0  0
 39 40  1  0  0  0  0
 40 41  2  0  0  0  0
 42 43  1  0  0  0  0
 43 44  1  0  0  0  0
 43 48  1  0  0  0  0
 44 45  1  0  0  0  0
 45 46  1  0  0  0  0
 45 47  2  0  0  0  0
 48 49  2  0  0  0  0
M  END
$$$$

 OpenBabel12191814062D

 50 52  0  0  0  0  0  0  0  0999 V2000
   -1.2904   -2.4768    0.0000 C   0  0  0  0  0  0  0  0  0  0  0  0
   -0.4901   -2.6772    0.0000 C   0  0  0  0  0  0  0  0  0  0  0  0
   -0.2635   -3.4705    0.0000 C   0  0  0  0  0  0  0  0  0  0  0  0
    0.0837   -2.0844    0.0000 C   0  0  0  0  0  0  0  0  0  0  0  0
    0.8839   -2.2848    0.0000 O   0  0  0  0  0  0  0  0  0  0  0  0
   -0.1429   -1.2911    0.0000 O   0  0  0  0  0  0  0  0  0  0  0  0
    0.4308   -0.6983    0.0000 C   0  0  3  0  0  0  0  0  0  0  0  0
    0.0067    0.0094    0.0000 C   0  0  3  0  0  0  0  0  0  0  0  0
   -0.7737   -0.2584    0.0000 C   0  0  3  0  0  0  0  0  0  0  0  0
   -1.0157   -1.0471    0.0000 O   0  0  0  0  0  0  0  0  0  0  0  0
   -1.2695    0.4010    0.0000 C   0  0  3  0  0  0  0  0  0  0  0  0
   -1.8734   -0.1610    0.0000 C   0  0  0  0  0  0  0  0  0  0  0  0
   -0.7955    1.0763    0.0000 C   0  0  0  0  0  0  0  0  0  0  0  0
   -0.0068    0.8342    0.0000 C   0  0  3  0  0  0  0  0  0  0  0  0
   -0.3151    1.5995    0.0000 O   0  0  0  0  0  0  0  0  0  0  0  0
    0.3939    1.5554    0.0000 C   0  0  0  0  0  0  0  0  0  0  0  0
   -0.1989    2.1291    0.0000 O   0  0  0  0  0  0  0  0  0  0  0  0
    1.1015    1.9795    0.0000 C   0  0  3  0  0  0  0  0  0  0  0  0
    1.0880    2.8044    0.0000 C   0  0  0  0  0  0  0  0  0  0  0  0
    1.8227    1.5788    0.0000 C   0  0  0  0  0  0  0  0  0  0  0  0
    2.6475    1.5923    0.0000 C   0  0  0  0  0  0  0  0  0  0  0  0
    3.0717    0.8847    0.0000 C   0  0  0  0  0  0  0  0  0  0  0  0
    3.8515    0.6153    0.0000 C   0  0  0  0  0  0  0  0  0  0  0  0
    3.5916    1.5253    0.0000 C   0  0  0  0  0  0  0  0  0  0  0  0
    3.0852    0.0598    0.0000 C   0  0  3  0  0  0  0  0  0  0  0  0
    3.8855   -0.1406    0.0000 O   0  0  0  0  0  0  0  0  0  0  0  0
    4.1120   -0.9339    0.0000 C   0  0  0  0  0  0  0  0  0  0  0  0
    4.9123   -1.1344    0.0000 C   0  0  0  0  0  0  0  0  0  0  0  0
    3.5383   -1.5268    0.0000 O   0  0  0  0  0  0  0  0  0  0  0  0
    2.6845   -0.6613    0.0000 C   0  0  3  0  0  0  0  0  0  0  0  0
    3.2773   -1.2351    0.0000 O   0  0  0  0  0  0  0  0  0  0  0  0
    3.0769   -2.0353    0.0000 C   0  0  0  0  0  0  0  0  0  0  0  0
    2.2836   -2.2619    0.0000 C   0  0  0  0  0  0  0  0  0  0  0  0
    3.6697   -2.6091    0.0000 O   0  0  0  0  0  0  0  0  0  0  0  0
    1.9769   -1.0855    0.0000 C   0  0  3  0  0  0  0  0  0  0  0  0
    2.2034   -1.8788    0.0000 O   0  0  0  0  0  0  0  0  0  0  0  0
    1.6297   -2.4716    0.0000 C   0  0  0  0  0  0  0  0  0  0  0  0
    0.8644   -2.7798    0.0000 O   0  0  0  0  0  0  0  0  0  0  0  0
    1.8562   -3.2649    0.0000 C   0  0  0  0  0  0  0  0  0  0  0  0
    2.6565   -3.4653    0.0000 C   0  0  0  0  0  0  0  0  0  0  0  0
    2.8831   -4.2586    0.0000 C   0  0  0  0  0  0  0  0  0  0  0  0
    2.3093   -4.8515    0.0000 C   0  0  0  0  0  0  0  0  0  0  0  0
    1.5091   -4.6510    0.0000 C   0  0  0  0  0  0  0  0  0  0  0  0
    1.2825   -3.8577    0.0000 C   0  0  0  0  0  0  0  0  0  0  0  0
    1.1520   -1.0990    0.0000 C   0  0  0  0  0  0  0  0  0  0  0  0
    0.9515   -1.8993    0.0000 C   0  0  0  0  0  0  0  0  0  0  0  0
   -1.8915    0.9429    0.0000 O   0  0  0  0  0  0  0  0  0  0  0  0
   -2.6718    0.6752    0.0000 C   0  0  0  0  0  0  0  0  0  0  0  0
   -2.8301   -0.1345    0.0000 C   0  0  0  0  0  0  0  0  0  0  0  0
   -3.2939    1.2171    0.0000 O   0  0  0  0  0  0  0  0  0  0  0  0
  1  2  1  0  0  0  0
  2  3  1  0  0  0  0
  2  4  1  0  0  0  0
  4  5  2  0  0  0  0
  4  6  1  0  0  0  0
  6  7  1  0  0  0  0
  7  8  1  0  0  0  0
  7 45  1  0  0  0  0
  8  9  1  0  0  0  0
  8 14  1  0  0  0  0
  9 10  1  0  0  0  0
  9 11  1  0  0  0  0
 11 12  1  0  0  0  0
 11 13  1  0  0  0  0
 11 47  1  0  0  0  0
 13 14  1  0  0  0  0
 14 15  1  0  0  0  0
 14 16  1  0  0  0  0
 16 17  2  0  0  0  0
 16 18  1  0  0  0  0
 18 19  1  0  0  0  0
 18 20  1  0  0  0  0
 20 21  2  0  0  0  0
 21 22  1  0  0  0  0
 22 23  1  0  0  0  0
 22 24  1  0  0  0  0
 22 25  1  0  0  0  0
 25 26  1  0  0  0  0
 25 30  1  0  0  0  0
 26 27  1  0  0  0  0
 27 28  1  0  0  0  0
 27 29  2  0  0  0  0
 30 31  1  0  0  0  0
 30 35  1  0  0  0  0
 31 32  1  0  0  0  0
 32 33  1  0  0  0  0
 32 34  2  0  0  0  0
 35 36  1  0  0  0  0
 35 45  1  0  0  0  0
 36 37  1  0  0  0  0
 37 38  2  0  0  0  0
 37 39  1  0  0  0  0
 39 40  2  0  0  0  0
 39 44  1  0  0  0  0
 40 41  1  0  0  0  0
 41 42  2  0  0  0  0
 42 43  1  0  0  0  0
 43 44  2  0  0  0  0
 45 46  2  0  0  0  0
 47 48  1  0  0  0  0
 48 49  1  0  0  0  0
 48 50  2  0  0  0  0
M  END
$$$$

 OpenBabel12191814062D

 61 64  0  0  0  0  0  0  0  0999 V2000
   -1.2904   -2.4768    0.0000 C   0  0  0  0  0  0  0  0  0  0  0  0
   -0.4901   -2.6772    0.0000 C   0  0  0  0  0  0  0  0  0  0  0  0
   -0.2635   -3.4705    0.0000 C   0  0  0  0  0  0  0  0  0  0  0  0
    0.0837   -2.0844    0.0000 C   0  0  0  0  0  0  0  0  0  0  0  0
    0.8839   -2.2848    0.0000 O   0  0  0  0  0  0  0  0  0  0  0  0
   -0.1429   -1.2911    0.0000 O   0  0  0  0  0  0  0  0  0  0  0  0
    0.4308   -0.6983    0.0000 C   0  0  3  0  0  0  0  0  0  0  0  0
    0.0067    0.0094    0.0000 C   0  0  3  0  0  0  0  0  0  0  0  0
   -0.7737   -0.2584    0.0000 C   0  0  3  0  0  0  0  0  0  0  0  0
   -1.0157   -1.0471    0.0000 O   0  0  0  0  0  0  0  0  0  0  0  0
   -1.8198   -1.2318    0.0000 C   0  0  0  0  0  0  0  0  0  0  0  0
   -2.0618   -2.0205    0.0000 C   0  0  0  0  0  0  0  0  0  0  0  0
   -2.3818   -0.6279    0.0000 O   0  0  0  0  0  0  0  0  0  0  0  0
   -1.2695    0.4010    0.0000 C   0  0  3  0  0  0  0  0  0  0  0  0
   -1.8734   -0.1610    0.0000 C   0  0  0  0  0  0  0  0  0  0  0  0
   -0.7955    1.0763    0.0000 C   0  0  0  0  0  0  0  0  0  0  0  0
   -0.0068    0.8342    0.0000 C   0  0  3  0  0  0  0  0  0  0  0  0
   -0.3151    1.5995    0.0000 O   0  0  0  0  0  0  0  0  0  0  0  0
   -1.1319    1.7152    0.0000 C   0  0  0  0  0  0  0  0  0  0  0  0
   -1.6405    1.0656    0.0000 C   0  0  0  0  0  0  0  0  0  0  0  0
   -1.4401    2.4805    0.0000 O   0  0  0  0  0  0  0  0  0  0  0  0
    0.3939    1.5554    0.0000 C   0  0  0  0  0  0  0  0  0  0  0  0
   -0.1989    2.1291    0.0000 O   0  0  0  0  0  0  0  0  0  0  0  0
    1.1015    1.9795    0.0000 C   0  0  3  0  0  0  0  0  0  0  0  0
    1.0880    2.8044    0.0000 C   0  0  0  0  0  0  0  0  0  0  0  0
    1.8227    1.5788    0.0000 C   0  0  0  0  0  0  0  0  0  0  0  0
    2.6475    1.5923    0.0000 C   0  0  0  0  0  0  0  0  0  0  0  0
    3.0717    0.8847    0.0000 C   0  0  0  0  0  0  0  0  0  0  0  0
    3.8515    0.6153    0.0000 C   0  0  0  0  0  0  0  0  0  0  0  0
    3.5916    1.5253    0.0000 C   0  0  0  0  0  0  0  0  0  0  0  0
    3.0852    0.0598    0.0000 C   0  0  3  0  0  0  0  0  0  0  0  0
    3.8855   -0.1406    0.0000 O   0  0  0  0  0  0  0  0  0  0  0  0
    4.1120   -0.9339    0.0000 C   0  0  0  0  0  0  0  0  0  0  0  0
    3.5383   -1.5268    0.0000 O   0  0  0  0  0  0  0  0  0  0  0  0
    4.9123   -1.1344    0.0000 C   0  0  0  0  0  0  0  0  0  0  0  0
    5.1389   -1.9277    0.0000 C   0  0  0  0  0  0  0  0  0  0  0  0
    5.9392   -2.1281    0.0000 C   0  0  0  0  0  0  0  0  0  0  0  0
    6.5129   -1.5353    0.0000 C   0  0  0  0  0  0  0  0  0  0  0  0
    6.2863   -0.7420    0.0000 N   0  0  0  0  0  0  0  0  0  0  0  0
    5.4860   -0.5415    0.0000 C   0  0  0  0  0  0  0  0  0  0  0  0
    2.6845   -0.6613    0.0000 C   0  0  3  0  0  0  0  0  0  0  0  0
    3.2773   -1.2351    0.0000 O   0  0  0  0  0  0  0  0  0  0  0  0
    3.0769   -2.0353    0.0000 C   0  0  0  0  0  0  0  0  0  0  0  0
    3.6697   -2.6091    0.0000 C   0  0  0  0  0  0  0  0  0  0  0  0
    2.2836   -2.2619    0.0000 O   0  0  0  0  0  0  0  0  0  0  0  0
    1.9769   -1.0855    0.0000 C   0  0  3  0  0  0  0  0  0  0  0  0
    2.2034   -1.8788    0.0000 O   0  0  0  0  0  0  0  0  0  0  0  0
    1.6297   -2.4716    0.0000 C   0  0  0  0  0  0  0  0  0  0  0  0
    1.8562   -3.2649    0.0000 C   0  0  0  0  0  0  0  0  0  0  0  0
    0.8644   -2.7798    0.0000 O   0  0  0  0  0  0  0  0  0  0  0  0
    1.1520   -1.0990    0.0000 C   0  0  0  0  0  0  0  0  0  0  0  0
    0.9515   -1.8993    0.0000 C   0  0  0  0  0  0  0  0  0  0  0  0
   -1.8915    0.9429    0.0000 O   0  0  0  0  0  0  0  0  0  0  0  0
   -2.6718    0.6752    0.0000 C   0  0  0  0  0  0  0  0  0  0  0  0
   -2.8301   -0.1345    0.0000 O   0  0  0  0  0  0  0  0  0  0  0  0
   -3.2939    1.2171    0.0000 C   0  0  0  0  0  0  0  0  0  0  0  0
   -4.0742    0.9493    0.0000 C   0  0  0  0  0  0  0  0  0  0  0  0
   -4.6963    1.4912    0.0000 C   0  0  0  0  0  0  0  0  0  0  0  0
   -4.5380    2.3009    0.0000 C   0  0  0  0  0  0  0  0  0  0  0  0
   -3.7577    2.5687    0.0000 N   0  0  0  0  0  0  0  0  0  0  0  0
   -3.1356    2.0267    0.0000 C   0  0  0  0  0  0  0  0  0  0  0  0
  1  2  1  0  0  0  0
  2  3  1  0  0  0  0
  2  4  1  0  0  0  0
  4  5  2  0  0  0  0
  4  6  1  0  0  0  0
  6  7  1  0  0  0  0
  7  8  1  0  0  0  0
  7 51  1  0  0  0  0
  8  9  1  0  0  0  0
  8 17  1  0  0  0  0
  9 10  1  0  0  0  0
  9 14  1  0  0  0  0
 10 11  1  0  0  0  0
 11 12  1  0  0  0  0
 11 13  2  0  0  0  0
 14 15  1  0  0  0  0
 14 16  1  0  0  0  0
 14 53  1  0  0  0  0
 16 17  1  0  0  0  0
 17 18  1  0  0  0  0
 17 22  1  0  0  0  0
 18 19  1  0  0  0  0
 19 20  1  0  0  0  0
 19 21  2  0  0  0  0
 22 23  2  0  0  0  0
 22 24  1  0  0  0  0
 24 25  1  0  0  0  0
 24 26  1  0  0  0  0
 26 27  2  0  0  0  0
 27 28  1  0  0  0  0
 28 29  1  0  0  0  0
 28 30  1  0  0  0  0
 28 31  1  0  0  0  0
 31 32  1  0  0  0  0
 31 41  1  0  0  0  0
 32 33  1  0  0  0  0
 33 34  2  0  0  0  0
 33 35  1  0  0  0  0
 35 36  2  0  0  0  0
 35 40  1  0  0  0  0
 36 37  1  0  0  0  0
 37 38  2  0  0  0  0
 38 39  1  0  0  0  0
 39 40  2  0  0  0  0
 41 42  1  0  0  0  0
 41 46  1  0  0  0  0
 42 43  1  0  0  0  0
 43 44  1  0  0  0  0
 43 45  2  0  0  0  0
 46 47  1  0  0  0  0
 46 51  1  0  0  0  0
 47 48  1  0  0  0  0
 48 49  1  0  0  0  0
 48 50  2  0  0  0  0
 51 52  2  0  0  0  0
 53 54  1  0  0  0  0
 54 55  2  0  0  0  0
 54 56  1  0  0  0  0
 56 57  2  0  0  0  0
 56 61  1  0  0  0  0
 57 58  1  0  0  0  0
 58 59  2  0  0  0  0
 59 60  1  0  0  0  0
 60 61  2  0  0  0  0
M  END
$$$$

 OpenBabel12191814062D

 49 51  0  0  0  0  0  0  0  0999 V2000
   -1.2904   -2.4768    0.0000 C   0  0  0  0  0  0  0  0  0  0  0  0
   -0.4901   -2.6772    0.0000 C   0  0  0  0  0  0  0  0  0  0  0  0
   -0.2635   -3.4705    0.0000 C   0  0  0  0  0  0  0  0  0  0  0  0
    0.0837   -2.0844    0.0000 C   0  0  0  0  0  0  0  0  0  0  0  0
    0.8839   -2.2848    0.0000 O   0  0  0  0  0  0  0  0  0  0  0  0
   -0.1429   -1.2911    0.0000 O   0  0  0  0  0  0  0  0  0  0  0  0
    0.4308   -0.6983    0.0000 C   0  0  3  0  0  0  0  0  0  0  0  0
    0.0067    0.0094    0.0000 C   0  0  3  0  0  0  0  0  0  0  0  0
   -0.7737   -0.2584    0.0000 C   0  0  3  0  0  0  0  0  0  0  0  0
   -1.0157   -1.0471    0.0000 O   0  0  0  0  0  0  0  0  0  0  0  0
   -1.8198   -1.2318    0.0000 C   0  0  0  0  0  0  0  0  0  0  0  0
   -2.0618   -2.0205    0.0000 C   0  0  0  0  0  0  0  0  0  0  0  0
   -2.3818   -0.6279    0.0000 O   0  0  0  0  0  0  0  0  0  0  0  0
   -1.2695    0.4010    0.0000 C   0  0  3  0  0  0  0  0  0  0  0  0
   -2.0943    0.3875    0.0000 C   0  0  0  0  0  0  0  0  0  0  0  0
   -0.7955    1.0763    0.0000 C   0  0  0  0  0  0  0  0  0  0  0  0
   -0.0068    0.8342    0.0000 C   0  0  3  0  0  0  0  0  0  0  0  0
   -0.3151    1.5995    0.0000 O   0  0  0  0  0  0  0  0  0  0  0  0
    0.3939    1.5554    0.0000 C   0  0  0  0  0  0  0  0  0  0  0  0
   -0.1989    2.1291    0.0000 O   0  0  0  0  0  0  0  0  0  0  0  0
    1.1015    1.9795    0.0000 C   0  0  3  0  0  0  0  0  0  0  0  0
    1.0880    2.8044    0.0000 C   0  0  0  0  0  0  0  0  0  0  0  0
    1.8227    1.5788    0.0000 C   0  0  0  0  0  0  0  0  0  0  0  0
    2.6475    1.5923    0.0000 C   0  0  0  0  0  0  0  0  0  0  0  0
    3.0717    0.8847    0.0000 C   0  0  0  0  0  0  0  0  0  0  0  0
    3.8515    0.6153    0.0000 C   0  0  0  0  0  0  0  0  0  0  0  0
    3.5916    1.5253    0.0000 C   0  0  0  0  0  0  0  0  0  0  0  0
    3.0852    0.0598    0.0000 C   0  0  3  0  0  0  0  0  0  0  0  0
    3.8855   -0.1406    0.0000 O   0  0  0  0  0  0  0  0  0  0  0  0
    4.1120   -0.9339    0.0000 C   0  0  0  0  0  0  0  0  0  0  0  0
    4.9123   -1.1344    0.0000 C   0  0  0  0  0  0  0  0  0  0  0  0
    3.5383   -1.5268    0.0000 O   0  0  0  0  0  0  0  0  0  0  0  0
    2.6845   -0.6613    0.0000 C   0  0  3  0  0  0  0  0  0  0  0  0
    3.2773   -1.2351    0.0000 O   0  0  0  0  0  0  0  0  0  0  0  0
    3.0769   -2.0353    0.0000 C   0  0  0  0  0  0  0  0  0  0  0  0
    2.2836   -2.2619    0.0000 C   0  0  0  0  0  0  0  0  0  0  0  0
    3.6697   -2.6091    0.0000 O   0  0  0  0  0  0  0  0  0  0  0  0
    1.9769   -1.0855    0.0000 C   0  0  3  0  0  0  0  0  0  0  0  0
    2.2034   -1.8788    0.0000 O   0  0  0  0  0  0  0  0  0  0  0  0
    1.6297   -2.4716    0.0000 C   0  0  0  0  0  0  0  0  0  0  0  0
    0.8644   -2.7798    0.0000 O   0  0  0  0  0  0  0  0  0  0  0  0
    1.8562   -3.2649    0.0000 C   0  0  0  0  0  0  0  0  0  0  0  0
    2.6565   -3.4653    0.0000 C   0  0  0  0  0  0  0  0  0  0  0  0
    2.8831   -4.2586    0.0000 C   0  0  0  0  0  0  0  0  0  0  0  0
    2.3093   -4.8515    0.0000 C   0  0  0  0  0  0  0  0  0  0  0  0
    1.5091   -4.6510    0.0000 C   0  0  0  0  0  0  0  0  0  0  0  0
    1.2825   -3.8577    0.0000 C   0  0  0  0  0  0  0  0  0  0  0  0
    1.1520   -1.0990    0.0000 C   0  0  0  0  0  0  0  0  0  0  0  0
    0.9515   -1.8993    0.0000 C   0  0  0  0  0  0  0  0  0  0  0  0
  1  2  1  0  0  0  0
  2  3  1  0  0  0  0
  2  4  1  0  0  0  0
  4  5  2  0  0  0  0
  4  6  1  0  0  0  0
  6  7  1  0  0  0  0
  7  8  1  0  0  0  0
  7 48  1  0  0  0  0
  8  9  1  0  0  0  0
  8 17  1  0  0  0  0
  9 10  1  0  0  0  0
  9 14  1  0  0  0  0
 10 11  1  0  0  0  0
 11 12  1  0  0  0  0
 11 13  2  0  0  0  0
 14 15  1  0  0  0  0
 14 16  1  0  0  0  0
 16 17  1  0  0  0  0
 17 18  1  0  0  0  0
 17 19  1  0  0  0  0
 19 20  2  0  0  0  0
 19 21  1  0  0  0  0
 21 22  1  0  0  0  0
 21 23  1  0  0  0  0
 23 24  2  0  0  0  0
 24 25  1  0  0  0  0
 25 26  1  0  0  0  0
 25 27  1  0  0  0  0
 25 28  1  0  0  0  0
 28 29  1  0  0  0  0
 28 33  1  0  0  0  0
 29 30  1  0  0  0  0
 30 31  1  0  0  0  0
 30 32  2  0  0  0  0
 33 34  1  0  0  0  0
 33 38  1  0  0  0  0
 34 35  1  0  0  0  0
 35 36  1  0  0  0  0
 35 37  2  0  0  0  0
 38 39  1  0  0  0  0
 38 48  1  0  0  0  0
 39 40  1  0  0  0  0
 40 41  2  0  0  0  0
 40 42  1  0  0  0  0
 42 43  2  0  0  0  0
 42 47  1  0  0  0  0
 43 44  1  0  0  0  0
 44 45  2  0  0  0  0
 45 46  1  0  0  0  0
 46 47  2  0  0  0  0
 48 49  2  0  0  0  0
M  END
$$$$

 OpenBabel12191814062D

 25 26  0  0  0  0  0  0  0  0999 V2000
   -0.7145   -2.2836    0.0000 C   0  0  0  0  0  0  0  0  0  0  0  0
   -0.3020   -2.9980    0.0000 C   0  0  0  0  0  0  0  0  0  0  0  0
    0.5230   -2.9980    0.0000 C   0  0  0  0  0  0  0  0  0  0  0  0
   -0.7145   -3.7125    0.0000 C   0  0  3  0  0  0  0  0  0  0  0  0
    0.0000   -4.1250    0.0000 C   0  0  0  0  0  0  0  0  0  0  0  0
    0.7145   -3.7125    0.0000 C   0  0  0  0  0  0  0  0  0  0  0  0
    1.4289   -4.1250    0.0000 C   0  0  0  0  0  0  0  0  0  0  0  0
    2.1434   -3.7125    0.0000 N   0  0  0  0  0  0  0  0  0  0  0  0
    2.1434   -2.8875    0.0000 C   0  0  0  0  0  0  0  0  0  0  0  0
    2.8579   -4.1250    0.0000 C   0  0  0  0  0  0  0  0  0  0  0  0
    3.5724   -3.7125    0.0000 C   0  0  0  0  0  0  0  0  0  0  0  0
    4.2868   -4.1250    0.0000 C   0  0  0  0  0  0  0  0  0  0  0  0
    5.0013   -3.7125    0.0000 C   0  0  0  0  0  0  0  0  0  0  0  0
    5.7158   -4.1250    0.0000 C   0  0  0  0  0  0  0  0  0  0  0  0
    5.7158   -4.9500    0.0000 C   0  0  0  0  0  0  0  0  0  0  0  0
    5.0013   -5.3625    0.0000 C   0  0  0  0  0  0  0  0  0  0  0  0
    4.2868   -4.9500    0.0000 C   0  0  0  0  0  0  0  0  0  0  0  0
   -1.1270   -4.4270    0.0000 C   0  0  0  0  0  0  0  0  0  0  0  0
   -1.5395   -5.1414    0.0000 N   0  0  0  0  0  0  0  0  0  0  0  0
   -1.4289   -3.3000    0.0000 C   0  0  0  0  0  0  0  0  0  0  0  0
   -2.1434   -3.7125    0.0000 C   0  0  0  0  0  0  0  0  0  0  0  0
   -2.8579   -3.3000    0.0000 C   0  0  0  0  0  0  0  0  0  0  0  0
   -2.8579   -2.4750    0.0000 C   0  0  0  0  0  0  0  0  0  0  0  0
   -2.1434   -2.0625    0.0000 C   0  0  0  0  0  0  0  0  0  0  0  0
   -1.4289   -2.4750    0.0000 C   0  0  0  0  0  0  0  0  0  0  0  0
  1  2  1  0  0  0  0
  2  3  1  0  0  0  0
  2  4  1  0  0  0  0
  4  5  1  0  0  0  0
  4 18  1  0  0  0  0
  4 20  1  0  0  0  0
  5  6  1  0  0  0  0
  6  7  1  0  0  0  0
  7  8  1  0  0  0  0
  8  9  1  0  0  0  0
  8 10  1  0  0  0  0
 10 11  1  0  0  0  0
 11 12  1  0  0  0  0
 12 13  2  0  0  0  0
 12 17  1  0  0  0  0
 13 14  1  0  0  0  0
 14 15  2  0  0  0  0
 15 16  1  0  0  0  0
 16 17  2  0  0  0  0
 18 19  3  0  0  0  0
 20 21  2  0  0  0  0
 20 25  1  0  0  0  0
 21 22  1  0  0  0  0
 22 23  2  0  0  0  0
 23 24  1  0  0  0  0
 24 25  2  0  0  0  0
M  END
$$$$

 OpenBabel12191814062D

 46 49  0  0  0  0  0  0  0  0999 V2000
    0.9059   -4.4270    0.0000 C   0  0  0  0  0  0  0  0  0  0  0  0
    1.3184   -3.7125    0.0000 C   0  0  0  0  0  0  0  0  0  0  0  0
    0.9059   -2.9980    0.0000 C   0  0  0  0  0  0  0  0  0  0  0  0
    2.1434   -3.7125    0.0000 C   0  0  3  0  0  0  0  0  0  0  0  0
    2.5559   -4.4270    0.0000 N   0  0  0  0  0  0  0  0  0  0  0  0
    3.3809   -4.4270    0.0000 C   0  0  0  0  0  0  0  0  0  0  0  0
    3.7934   -5.1414    0.0000 C   0  0  0  0  0  0  0  0  0  0  0  0
    3.3809   -5.8559    0.0000 C   0  0  0  0  0  0  0  0  0  0  0  0
    2.5559   -5.8559    0.0000 N   0  0  0  0  0  0  0  0  0  0  0  0
    2.1434   -5.1414    0.0000 C   0  0  0  0  0  0  0  0  0  0  0  0
    1.3184   -5.1414    0.0000 O   0  0  0  0  0  0  0  0  0  0  0  0
    2.5559   -2.9980    0.0000 C   0  0  0  0  0  0  0  0  0  0  0  0
    3.3809   -2.9980    0.0000 O   0  0  0  0  0  0  0  0  0  0  0  0
    2.1434   -2.2836    0.0000 N   0  0  0  0  0  0  0  0  0  0  0  0
    2.5559   -1.5691    0.0000 C   0  0  3  0  0  0  0  0  0  0  0  0
    3.3809   -1.5691    0.0000 C   0  0  0  0  0  0  0  0  0  0  0  0
    3.7934   -2.2836    0.0000 C   0  0  3  0  0  0  0  0  0  0  0  0
    3.8796   -3.1040    0.0000 O   0  0  0  0  0  0  0  0  0  0  0  0
    4.6184   -2.2836    0.0000 C   0  0  3  0  0  0  0  0  0  0  0  0
    5.2315   -1.7315    0.0000 C   0  0  0  0  0  0  0  0  0  0  0  0
    5.0600   -0.9246    0.0000 C   0  0  0  0  0  0  0  0  0  0  0  0
    4.2754   -0.6696    0.0000 C   0  0  0  0  0  0  0  0  0  0  0  0
    4.1038    0.1374    0.0000 C   0  0  0  0  0  0  0  0  0  0  0  0
    4.7169    0.6894    0.0000 C   0  0  0  0  0  0  0  0  0  0  0  0
    5.5015    0.4345    0.0000 C   0  0  0  0  0  0  0  0  0  0  0  0
    5.6731   -0.3725    0.0000 C   0  0  0  0  0  0  0  0  0  0  0  0
    5.0309   -2.9980    0.0000 N   0  0  0  0  0  0  0  0  0  0  0  0
    5.8559   -2.9980    0.0000 C   0  0  0  0  0  0  0  0  0  0  0  0
    6.2684   -2.2836    0.0000 O   0  0  0  0  0  0  0  0  0  0  0  0
    6.2684   -3.7125    0.0000 C   0  0  0  0  0  0  0  0  0  0  0  0
    7.0934   -3.7125    0.0000 O   0  0  0  0  0  0  0  0  0  0  0  0
    7.5059   -4.4270    0.0000 C   0  0  0  0  0  0  0  0  0  0  0  0
    8.3309   -4.4270    0.0000 C   0  0  0  0  0  0  0  0  0  0  0  0
    8.7434   -3.7125    0.0000 C   0  0  0  0  0  0  0  0  0  0  0  0
    8.7434   -5.1414    0.0000 C   0  0  0  0  0  0  0  0  0  0  0  0
    8.3309   -5.8559    0.0000 C   0  0  0  0  0  0  0  0  0  0  0  0
    7.5059   -5.8559    0.0000 C   0  0  0  0  0  0  0  0  0  0  0  0
    7.0934   -5.1414    0.0000 C   0  0  0  0  0  0  0  0  0  0  0  0
    6.2684   -5.1414    0.0000 C   0  0  0  0  0  0  0  0  0  0  0  0
    2.1434   -0.8546    0.0000 C   0  0  0  0  0  0  0  0  0  0  0  0
    2.5559   -0.1401    0.0000 C   0  0  0  0  0  0  0  0  0  0  0  0
    2.1434    0.5743    0.0000 C   0  0  0  0  0  0  0  0  0  0  0  0
    2.5559    1.2888    0.0000 C   0  0  0  0  0  0  0  0  0  0  0  0
    3.3809    1.2888    0.0000 C   0  0  0  0  0  0  0  0  0  0  0  0
    3.7934    0.5743    0.0000 C   0  0  0  0  0  0  0  0  0  0  0  0
    3.3809   -0.1401    0.0000 C   0  0  0  0  0  0  0  0  0  0  0  0
  1  2  1  0  0  0  0
  2  3  1  0  0  0  0
  2  4  1  0  0  0  0
  4  5  1  0  0  0  0
  4 12  1  0  0  0  0
  5  6  1  0  0  0  0
  5 10  1  0  0  0  0
  6  7  1  0  0  0  0
  7  8  1  0  0  0  0
  8  9  1  0  0  0  0
  9 10  1  0  0  0  0
 10 11  2  0  0  0  0
 12 13  2  0  0  0  0
 12 14  1  0  0  0  0
 14 15  1  0  0  0  0
 15 16  1  0  0  0  0
 15 40  1  0  0  0  0
 16 17  1  0  0  0  0
 17 18  1  0  0  0  0
 17 19  1  0  0  0  0
 19 20  1  0  0  0  0
 19 27  1  0  0  0  0
 20 21  1  0  0  0  0
 21 22  2  0  0  0  0
 21 26  1  0  0  0  0
 22 23  1  0  0  0  0
 23 24  2  0  0  0  0
 24 25  1  0  0  0  0
 25 26  2  0  0  0  0
 27 28  1  0  0  0  0
 28 29  2  0  0  0  0
 28 30  1  0  0  0  0
 30 31  1  0  0  0  0
 31 32  1  0  0  0  0
 32 33  2  0  0  0  0
 32 38  1  0  0  0  0
 33 34  1  0  0  0  0
 33 35  1  0  0  0  0
 35 36  2  0  0  0  0
 36 37  1  0  0  0  0
 37 38  2  0  0  0  0
 38 39  1  0  0  0  0
 40 41  1  0  0  0  0
 41 42  2  0  0  0  0
 41 46  1  0  0  0  0
 42 43  1  0  0  0  0
 43 44  2  0  0  0  0
 44 45  1  0  0  0  0
 45 46  2  0  0  0  0
M  END
$$$$

 OpenBabel12191814062D

 50 53  0  0  0  0  0  0  0  0999 V2000
   -4.2868    2.4750    0.0000 C   0  0  0  0  0  0  0  0  0  0  0  0
   -4.2868    1.6500    0.0000 C   0  0  0  0  0  0  0  0  0  0  0  0
   -5.0013    1.2375    0.0000 C   0  0  0  0  0  0  0  0  0  0  0  0
   -3.5724    1.2375    0.0000 C   0  0  3  0  0  0  0  0  0  0  0  0
   -3.5724    0.4125    0.0000 N   0  0  0  0  0  0  0  0  0  0  0  0
   -4.2868   -0.0000    0.0000 C   0  0  0  0  0  0  0  0  0  0  0  0
   -5.0013    0.4125    0.0000 O   0  0  0  0  0  0  0  0  0  0  0  0
   -4.2868   -0.8250    0.0000 N   0  0  0  0  0  0  0  0  0  0  0  0
   -3.5724   -1.2375    0.0000 C   0  0  0  0  0  0  0  0  0  0  0  0
   -5.0013   -1.2375    0.0000 C   0  0  0  0  0  0  0  0  0  0  0  0
   -5.0013   -2.0625    0.0000 C   0  0  0  0  0  0  0  0  0  0  0  0
   -4.3339   -2.5474    0.0000 C   0  0  0  0  0  0  0  0  0  0  0  0
   -4.5888   -3.3320    0.0000 S   0  0  0  0  0  0  0  0  0  0  0  0
   -5.4138   -3.3320    0.0000 C   0  0  0  0  0  0  0  0  0  0  0  0
   -5.6687   -2.5474    0.0000 N   0  0  0  0  0  0  0  0  0  0  0  0
   -5.8987   -3.9995    0.0000 C   0  0  0  0  0  0  0  0  0  0  0  0
   -5.5632   -4.7532    0.0000 C   0  0  0  0  0  0  0  0  0  0  0  0
   -6.7192   -3.9132    0.0000 C   0  0  0  0  0  0  0  0  0  0  0  0
   -2.8579    1.6500    0.0000 C   0  0  0  0  0  0  0  0  0  0  0  0
   -2.1434    1.2375    0.0000 O   0  0  0  0  0  0  0  0  0  0  0  0
   -2.8579    2.4750    0.0000 N   0  0  0  0  0  0  0  0  0  0  0  0
   -2.1434    2.8875    0.0000 C   0  0  3  0  0  0  0  0  0  0  0  0
   -1.4289    2.4750    0.0000 C   0  0  0  0  0  0  0  0  0  0  0  0
   -1.4289    1.6500    0.0000 C   0  0  3  0  0  0  0  0  0  0  0  0
   -1.7645    0.8963    0.0000 O   0  0  0  0  0  0  0  0  0  0  0  0
   -0.7145    1.2375    0.0000 C   0  0  3  0  0  0  0  0  0  0  0  0
    0.0000    1.6500    0.0000 C   0  0  0  0  0  0  0  0  0  0  0  0
    0.0000    2.4750    0.0000 C   0  0  0  0  0  0  0  0  0  0  0  0
   -0.7145    2.8875    0.0000 C   0  0  0  0  0  0  0  0  0  0  0  0
   -0.7145    3.7125    0.0000 C   0  0  0  0  0  0  0  0  0  0  0  0
   -0.0000    4.1250    0.0000 C   0  0  0  0  0  0  0  0  0  0  0  0
    0.7145    3.7125    0.0000 C   0  0  0  0  0  0  0  0  0  0  0  0
    0.7145    2.8875    0.0000 C   0  0  0  0  0  0  0  0  0  0  0  0
   -0.7145    0.4125    0.0000 N   0  0  0  0  0  0  0  0  0  0  0  0
    0.0000   -0.0000    0.0000 C   0  0  0  0  0  0  0  0  0  0  0  0
    0.7145    0.4125    0.0000 O   0  0  0  0  0  0  0  0  0  0  0  0
    0.0000   -0.8250    0.0000 O   0  0  0  0  0  0  0  0  0  0  0  0
    0.7145   -1.2375    0.0000 C   0  0  0  0  0  0  0  0  0  0  0  0
    0.7145   -2.0625    0.0000 C   0  0  0  0  0  0  0  0  0  0  0  0
    0.0470   -2.5474    0.0000 C   0  0  0  0  0  0  0  0  0  0  0  0
    0.3020   -3.3320    0.0000 N   0  0  0  0  0  0  0  0  0  0  0  0
    1.1270   -3.3320    0.0000 C   0  0  0  0  0  0  0  0  0  0  0  0
    1.3819   -2.5474    0.0000 S   0  0  0  0  0  0  0  0  0  0  0  0
   -2.1434    3.7125    0.0000 C   0  0  0  0  0  0  0  0  0  0  0  0
   -2.8579    4.1250    0.0000 C   0  0  0  0  0  0  0  0  0  0  0  0
   -3.5724    3.7125    0.0000 C   0  0  0  0  0  0  0  0  0  0  0  0
   -4.2868    4.1250    0.0000 C   0  0  0  0  0  0  0  0  0  0  0  0
   -4.2868    4.9500    0.0000 C   0  0  0  0  0  0  0  0  0  0  0  0
   -3.5724    5.3625    0.0000 C   0  0  0  0  0  0  0  0  0  0  0  0
   -2.8579    4.9500    0.0000 C   0  0  0  0  0  0  0  0  0  0  0  0
  1  2  1  0  0  0  0
  2  3  1  0  0  0  0
  2  4  1  0  0  0  0
  4  5  1  0  0  0  0
  4 19  1  0  0  0  0
  5  6  1  0  0  0  0
  6  7  2  0  0  0  0
  6  8  1  0  0  0  0
  8  9  1  0  0  0  0
  8 10  1  0  0  0  0
 10 11  1  0  0  0  0
 11 12  2  0  0  0  0
 11 15  1  0  0  0  0
 12 13  1  0  0  0  0
 13 14  1  0  0  0  0
 14 15  2  0  0  0  0
 14 16  1  0  0  0  0
 16 17  1  0  0  0  0
 16 18  1  0  0  0  0
 19 20  2  0  0  0  0
 19 21  1  0  0  0  0
 21 22  1  0  0  0  0
 22 23  1  0  0  0  0
 22 44  1  0  0  0  0
 23 24  1  0  0  0  0
 24 25  1  0  0  0  0
 24 26  1  0  0  0  0
 26 27  1  0  0  0  0
 26 34  1  0  0  0  0
 27 28  1  0  0  0  0
 28 29  2  0  0  0  0
 28 33  1  0  0  0  0
 29 30  1  0  0  0  0
 30 31  2  0  0  0  0
 31 32  1  0  0  0  0
 32 33  2  0  0  0  0
 34 35  1  0  0  0  0
 35 36  2  0  0  0  0
 35 37  1  0  0  0  0
 37 38  1  0  0  0  0
 38 39  1  0  0  0  0
 39 40  2  0  0  0  0
 39 43  1  0  0  0  0
 40 41  1  0  0  0  0
 41 42  2  0  0  0  0
 42 43  1  0  0  0  0
 44 45  1  0  0  0  0
 45 46  2  0  0  0  0
 45 50  1  0  0  0  0
 46 47  1  0  0  0  0
 47 48  2  0  0  0  0
 48 49  1  0  0  0  0
 49 50  2  0  0  0  0
M  END
$$$$

 OpenBabel12191814062D

 32 34  0  0  0  0  0  0  0  0999 V2000
    0.5401   -2.2736    0.0000 C   0  0  0  0  0  0  0  0  0  0  0  0
    0.0000   -1.6500    0.0000 C   0  0  0  0  0  0  0  0  0  0  0  0
   -0.8101   -1.8059    0.0000 C   0  0  0  0  0  0  0  0  0  0  0  0
    0.2700   -0.8704    0.0000 C   0  0  3  0  0  0  0  0  0  0  0  0
    1.0802   -0.7145    0.0000 N   0  0  0  0  0  0  0  0  0  0  0  0
    1.6203   -1.3382    0.0000 C   0  0  0  0  0  0  0  0  0  0  0  0
    2.4304   -1.1823    0.0000 C   0  0  3  0  0  0  0  0  0  0  0  0
    2.7004   -0.4027    0.0000 O   0  0  0  0  0  0  0  0  0  0  0  0
    2.9705   -1.8059    0.0000 C   0  0  0  0  0  0  0  0  0  0  0  0
    3.7806   -1.6500    0.0000 O   0  0  0  0  0  0  0  0  0  0  0  0
    4.3207   -2.2736    0.0000 C   0  0  0  0  0  0  0  0  0  0  0  0
    5.1308   -2.1177    0.0000 C   0  0  0  0  0  0  0  0  0  0  0  0
    5.6709   -2.7414    0.0000 C   0  0  0  0  0  0  0  0  0  0  0  0
    5.4009   -3.5209    0.0000 C   0  0  0  0  0  0  0  0  0  0  0  0
    4.5908   -3.6768    0.0000 C   0  0  0  0  0  0  0  0  0  0  0  0
    4.0507   -3.0532    0.0000 C   0  0  0  0  0  0  0  0  0  0  0  0
    3.2405   -3.2091    0.0000 C   0  0  0  0  0  0  0  0  0  0  0  0
    2.7004   -2.5855    0.0000 O   0  0  0  0  0  0  0  0  0  0  0  0
    2.9705   -3.9887    0.0000 C   0  0  0  0  0  0  0  0  0  0  0  0
    2.1604   -4.1446    0.0000 C   0  0  0  0  0  0  0  0  0  0  0  0
    1.8903   -4.9241    0.0000 C   0  0  0  0  0  0  0  0  0  0  0  0
    2.4304   -5.5478    0.0000 C   0  0  0  0  0  0  0  0  0  0  0  0
    2.1604   -6.3273    0.0000 C   0  0  0  0  0  0  0  0  0  0  0  0
    1.3502   -6.4832    0.0000 C   0  0  0  0  0  0  0  0  0  0  0  0
    0.8101   -5.8596    0.0000 C   0  0  0  0  0  0  0  0  0  0  0  0
    1.0802   -5.0800    0.0000 C   0  0  0  0  0  0  0  0  0  0  0  0
   -0.2700   -0.2468    0.0000 C   0  0  0  0  0  0  0  0  0  0  0  0
   -1.0802   -0.4027    0.0000 C   0  0  0  0  0  0  0  0  0  0  0  0
   -1.6203    0.2209    0.0000 C   0  0  0  0  0  0  0  0  0  0  0  0
   -1.3502    1.0005    0.0000 C   0  0  0  0  0  0  0  0  0  0  0  0
   -0.5401    1.1564    0.0000 C   0  0  0  0  0  0  0  0  0  0  0  0
    0.0000    0.5327    0.0000 C   0  0  0  0  0  0  0  0  0  0  0  0
  1  2  1  0  0  0  0
  2  3  1  0  0  0  0
  2  4  1  0  0  0  0
  4  5  1  0  0  0  0
  4 27  1  0  0  0  0
  5  6  1  0  0  0  0
  6  7  1  0  0  0  0
  7  8  1  0  0  0  0
  7  9  1  0  0  0  0
  9 10  1  0  0  0  0
 10 11  1  0  0  0  0
 11 12  2  0  0  0  0
 11 16  1  0  0  0  0
 12 13  1  0  0  0  0
 13 14  2  0  0  0  0
 14 15  1  0  0  0  0
 15 16  2  0  0  0  0
 16 17  1  0  0  0  0
 17 18  2  0  0  0  0
 17 19  1  0  0  0  0
 19 20  1  0  0  0  0
 20 21  1  0  0  0  0
 21 22  2  0  0  0  0
 21 26  1  0  0  0  0
 22 23  1  0  0  0  0
 23 24  2  0  0  0  0
 24 25  1  0  0  0  0
 25 26  2  0  0  0  0
 27 28  2  0  0  0  0
 27 32  1  0  0  0  0
 28 29  1  0  0  0  0
 29 30  2  0  0  0  0
 30 31  1  0  0  0  0
 31 32  2  0  0  0  0
M  END
$$$$

 OpenBabel12191814062D

 45 52  0  0  0  0  0  0  0  0999 V2000
    5.9874    2.6586    0.0000 C   0  0  0  0  0  0  0  0  0  0  0  0
    5.6519    1.9049    0.0000 C   0  0  0  0  0  0  0  0  0  0  0  0
    4.8314    1.8187    0.0000 C   0  0  0  0  0  0  0  0  0  0  0  0
    6.1368    1.2375    0.0000 C   0  0  3  0  0  0  0  0  0  0  0  0
    5.4223    0.8250    0.0000 N   0  0  0  0  0  0  0  0  0  0  0  0
    4.7079    1.2375    0.0000 C   0  0  0  0  0  0  0  0  0  0  0  0
    4.4529    2.0221    0.0000 O   0  0  0  0  0  0  0  0  0  0  0  0
    3.9934    0.8250    0.0000 C   0  0  3  0  0  0  0  0  0  0  0  0
    3.9934   -0.0000    0.0000 C   0  0  0  0  0  0  0  0  0  0  0  0
    3.2789   -0.4125    0.0000 N   0  0  0  0  0  0  0  0  0  0  0  0
    3.2789   -1.2375    0.0000 C   0  0  0  0  0  0  0  0  0  0  0  0
    2.5645   -0.0000    0.0000 C   0  0  3  0  0  0  0  0  0  0  0  0
    1.8500   -0.4125    0.0000 C   0  0  0  0  0  0  0  0  0  0  0  0
    1.1355   -0.0000    0.0000 C   0  0  0  0  0  0  0  0  0  0  0  0
    0.3509   -0.2549    0.0000 C   0  0  0  0  0  0  0  0  0  0  0  0
   -0.1340    0.4125    0.0000 N   0  0  0  0  0  0  0  0  0  0  0  0
    0.3509    1.0799    0.0000 C   0  0  0  0  0  0  0  0  0  0  0  0
    0.1794    1.8869    0.0000 C   0  0  0  0  0  0  0  0  0  0  0  0
    0.7925    2.4389    0.0000 C   0  0  0  0  0  0  0  0  0  0  0  0
    1.5771    2.1840    0.0000 C   0  0  0  0  0  0  0  0  0  0  0  0
    1.8500    1.2375    0.0000 C   0  0  0  0  0  0  0  0  0  0  0  0
    2.5645    0.8250    0.0000 C   0  0  0  0  0  0  0  0  0  0  0  0
    3.2789    1.2375    0.0000 C   0  0  0  0  0  0  0  0  0  0  0  0
    1.1355    0.8250    0.0000 C   0  0  0  0  0  0  0  0  0  0  0  0
    6.7499    1.7895    0.0000 O   0  0  0  0  0  0  0  0  0  0  0  0
    7.4644    1.3770    0.0000 C   0  0  3  0  0  0  0  0  0  0  0  0
    7.5506    2.1975    0.0000 O   0  0  0  0  0  0  0  0  0  0  0  0
    8.2490    1.6320    0.0000 C   0  0  3  0  0  0  0  0  0  0  0  0
    8.5846    2.3856    0.0000 C   0  0  0  0  0  0  0  0  0  0  0  0
    9.4050    2.2994    0.0000 C   0  0  0  0  0  0  0  0  0  0  0  0
    9.5766    1.4924    0.0000 C   0  0  0  0  0  0  0  0  0  0  0  0
    8.8621    1.0799    0.0000 N   0  0  0  0  0  0  0  0  0  0  0  0
    8.6906    0.2730    0.0000 C   0  0  0  0  0  0  0  0  0  0  0  0
    9.3037   -0.2791    0.0000 O   0  0  0  0  0  0  0  0  0  0  0  0
    7.9059    0.0180    0.0000 C   0  0  3  0  0  0  0  0  0  0  0  0
    7.7344   -0.7889    0.0000 C   0  0  0  0  0  0  0  0  0  0  0  0
    8.3475   -1.3410    0.0000 C   0  0  0  0  0  0  0  0  0  0  0  0
    9.1321   -1.0860    0.0000 C   0  0  0  0  0  0  0  0  0  0  0  0
    9.7452   -1.6381    0.0000 C   0  0  0  0  0  0  0  0  0  0  0  0
    9.5737   -2.4450    0.0000 C   0  0  0  0  0  0  0  0  0  0  0  0
    8.7891   -2.7000    0.0000 C   0  0  0  0  0  0  0  0  0  0  0  0
    8.1760   -2.1479    0.0000 C   0  0  0  0  0  0  0  0  0  0  0  0
    7.2929    0.5701    0.0000 N   0  0  0  0  0  0  0  0  0  0  0  0
    6.4724    0.4838    0.0000 C   0  0  0  0  0  0  0  0  0  0  0  0
    6.0599   -0.2306    0.0000 O   0  0  0  0  0  0  0  0  0  0  0  0
  1  2  1  0  0  0  0
  2  3  1  0  0  0  0
  2  4  1  0  0  0  0
  4  5  1  0  0  0  0
  4 25  1  0  0  0  0
  4 44  1  0  0  0  0
  5  6  1  0  0  0  0
  6  7  2  0  0  0  0
  6  8  1  0  0  0  0
  8  9  1  0  0  0  0
  8 23  1  0  0  0  0
  9 10  1  0  0  0  0
 10 11  1  0  0  0  0
 10 12  1  0  0  0  0
 12 13  1  0  0  0  0
 12 22  1  0  0  0  0
 13 14  1  0  0  0  0
 14 15  2  0  0  0  0
 14 24  1  0  0  0  0
 15 16  1  0  0  0  0
 16 17  1  0  0  0  0
 17 18  2  0  0  0  0
 17 24  1  0  0  0  0
 18 19  1  0  0  0  0
 19 20  2  0  0  0  0
 20 21  1  0  0  0  0
 21 22  1  0  0  0  0
 21 24  2  0  0  0  0
 22 23  2  0  0  0  0
 25 26  1  0  0  0  0
 26 27  1  0  0  0  0
 26 28  1  0  0  0  0
 26 43  1  0  0  0  0
 28 29  1  0  0  0  0
 28 32  1  0  0  0  0
 29 30  1  0  0  0  0
 30 31  1  0  0  0  0
 31 32  1  0  0  0  0
 32 33  1  0  0  0  0
 33 34  2  0  0  0  0
 33 35  1  0  0  0  0
 35 36  1  0  0  0  0
 35 43  1  0  0  0  0
 36 37  1  0  0  0  0
 37 38  2  0  0  0  0
 37 42  1  0  0  0  0
 38 39  1  0  0  0  0
 39 40  2  0  0  0  0
 40 41  1  0  0  0  0
 41 42  2  0  0  0  0
 43 44  1  0  0  0  0
 44 45  2  0  0  0  0
M  END
$$$$

 OpenBabel12191814062D

 40 44  0  0  0  0  0  0  0  0999 V2000
    0.0000   -0.0000    0.0000 C   0  0  0  0  0  0  0  0  0  0  0  0
    0.7145   -0.4125    0.0000 C   0  0  0  0  0  0  0  0  0  0  0  0
    1.4289   -0.0000    0.0000 C   0  0  0  0  0  0  0  0  0  0  0  0
    0.7145   -1.2375    0.0000 C   0  0  0  0  0  0  0  0  0  0  0  0
    1.3819   -1.7224    0.0000 C   0  0  0  0  0  0  0  0  0  0  0  0
    2.1665   -1.4675    0.0000 C   0  0  0  0  0  0  0  0  0  0  0  0
    2.3381   -0.6605    0.0000 O   0  0  0  0  0  0  0  0  0  0  0  0
    2.7796   -2.0195    0.0000 N   0  0  0  0  0  0  0  0  0  0  0  0
    3.5642   -1.7646    0.0000 C   0  0  0  0  0  0  0  0  0  0  0  0
    3.7358   -0.9576    0.0000 C   0  0  0  0  0  0  0  0  0  0  0  0
    4.5204   -0.7027    0.0000 C   0  0  0  0  0  0  0  0  0  0  0  0
    5.1335   -1.2547    0.0000 C   0  0  0  0  0  0  0  0  0  0  0  0
    4.9620   -2.0617    0.0000 C   0  0  0  0  0  0  0  0  0  0  0  0
    4.1773   -2.3166    0.0000 C   0  0  0  0  0  0  0  0  0  0  0  0
    1.1270   -2.5070    0.0000 C   0  0  0  0  0  0  0  0  0  0  0  0
    0.3020   -2.5070    0.0000 C   0  0  0  0  0  0  0  0  0  0  0  0
   -0.1830   -3.1745    0.0000 C   0  0  0  0  0  0  0  0  0  0  0  0
    0.1526   -3.9282    0.0000 C   0  0  0  0  0  0  0  0  0  0  0  0
   -0.3323   -4.5956    0.0000 C   0  0  0  0  0  0  0  0  0  0  0  0
   -1.1528   -4.5094    0.0000 C   0  0  0  0  0  0  0  0  0  0  0  0
   -1.6377   -5.1768    0.0000 F   0  0  0  0  0  0  0  0  0  0  0  0
   -1.4884   -3.7557    0.0000 C   0  0  0  0  0  0  0  0  0  0  0  0
   -1.0034   -3.0882    0.0000 C   0  0  0  0  0  0  0  0  0  0  0  0
    0.0470   -1.7224    0.0000 N   0  0  0  0  0  0  0  0  0  0  0  0
   -0.7376   -1.4675    0.0000 C   0  0  0  0  0  0  0  0  0  0  0  0
   -1.3507   -2.0195    0.0000 C   0  0  0  0  0  0  0  0  0  0  0  0
   -2.1353   -1.7646    0.0000 C   0  0  3  0  0  0  0  0  0  0  0  0
   -2.7484   -2.3166    0.0000 C   0  0  0  0  0  0  0  0  0  0  0  0
   -3.5330   -2.0617    0.0000 C   0  0  3  0  0  0  0  0  0  0  0  0
   -4.1461   -2.6137    0.0000 O   0  0  0  0  0  0  0  0  0  0  0  0
   -3.7045   -1.2547    0.0000 C   0  0  0  0  0  0  0  0  0  0  0  0
   -3.0915   -0.7027    0.0000 C   0  0  0  0  0  0  0  0  0  0  0  0
   -3.2630    0.1043    0.0000 O   0  0  0  0  0  0  0  0  0  0  0  0
   -2.3068   -0.9576    0.0000 O   0  0  0  0  0  0  0  0  0  0  0  0
    1.6119   -3.1745    0.0000 C   0  0  0  0  0  0  0  0  0  0  0  0
    2.4324   -3.0882    0.0000 C   0  0  0  0  0  0  0  0  0  0  0  0
    2.9173   -3.7557    0.0000 C   0  0  0  0  0  0  0  0  0  0  0  0
    2.5817   -4.5094    0.0000 C   0  0  0  0  0  0  0  0  0  0  0  0
    1.7613   -4.5956    0.0000 C   0  0  0  0  0  0  0  0  0  0  0  0
    1.2763   -3.9282    0.0000 C   0  0  0  0  0  0  0  0  0  0  0  0
  1  2  1  0  0  0  0
  2  3  1  0  0  0  0
  2  4  1  0  0  0  0
  4  5  2  0  0  0  0
  4 24  1  0  0  0  0
  5  6  1  0  0  0  0
  5 15  1  0  0  0  0
  6  7  2  0  0  0  0
  6  8  1  0  0  0  0
  8  9  1  0  0  0  0
  9 10  2  0  0  0  0
  9 14  1  0  0  0  0
 10 11  1  0  0  0  0
 11 12  2  0  0  0  0
 12 13  1  0  0  0  0
 13 14  2  0  0  0  0
 15 16  2  0  0  0  0
 15 35  1  0  0  0  0
 16 17  1  0  0  0  0
 16 24  1  0  0  0  0
 17 18  2  0  0  0  0
 17 23  1  0  0  0  0
 18 19  1  0  0  0  0
 19 20  2  0  0  0  0
 20 21  1  0  0  0  0
 20 22  1  0  0  0  0
 22 23  2  0  0  0  0
 24 25  1  0  0  0  0
 25 26  1  0  0  0  0
 26 27  1  0  0  0  0
 27 28  1  0  0  0  0
 27 34  1  0  0  0  0
 28 29  1  0  0  0  0
 29 30  1  0  0  0  0
 29 31  1  0  0  0  0
 31 32  1  0  0  0  0
 32 33  2  0  0  0  0
 32 34  1  0  0  0  0
 35 36  2  0  0  0  0
 35 40  1  0  0  0  0
 36 37  1  0  0  0  0
 37 38  2  0  0  0  0
 38 39  1  0  0  0  0
 39 40  2  0  0  0  0
M  END
$$$$

 OpenBabel12191814062D

 78 78  0  0  0  0  0  0  0  0999 V2000
   -0.9355    2.6664    0.0000 C   0  0  0  0  0  0  0  0  0  0  0  0
   -0.5230    1.9520    0.0000 C   0  0  0  0  0  0  0  0  0  0  0  0
   -0.9355    1.2375    0.0000 C   0  0  0  0  0  0  0  0  0  0  0  0
    0.3020    1.9520    0.0000 C   0  0  3  0  0  0  0  0  0  0  0  0
    0.7145    1.2375    0.0000 N   0  0  0  0  0  0  0  0  0  0  0  0
    0.0000    0.8250    0.0000 C   0  0  0  0  0  0  0  0  0  0  0  0
   -0.8205    0.7388    0.0000 O   0  0  0  0  0  0  0  0  0  0  0  0
    0.0000    0.0000    0.0000 C   0  0  3  0  0  0  0  0  0  0  0  0
    0.7145   -0.4125    0.0000 O   0  0  0  0  0  0  0  0  0  0  0  0
    0.3020   -1.1270    0.0000 C   0  0  0  0  0  0  0  0  0  0  0  0
   -0.5230   -1.1270    0.0000 O   0  0  0  0  0  0  0  0  0  0  0  0
    0.7145   -1.8414    0.0000 C   0  0  3  0  0  0  0  0  0  0  0  0
    0.3020   -2.5559    0.0000 C   0  0  0  0  0  0  0  0  0  0  0  0
    1.5395   -1.8414    0.0000 O   0  0  0  0  0  0  0  0  0  0  0  0
    1.5395   -2.6664    0.0000 C   0  0  0  0  0  0  0  0  0  0  0  0
    0.8250   -3.0789    0.0000 O   0  0  0  0  0  0  0  0  0  0  0  0
    2.2539   -3.0789    0.0000 C   0  0  3  0  0  0  0  0  0  0  0  0
    2.9684   -2.6664    0.0000 N   0  0  0  0  0  0  0  0  0  0  0  0
    3.3809   -3.3809    0.0000 C   0  0  0  0  0  0  0  0  0  0  0  0
    2.9684   -4.0954    0.0000 O   0  0  0  0  0  0  0  0  0  0  0  0
    4.2059   -3.3809    0.0000 C   0  0  3  0  0  0  0  0  0  0  0  0
    4.6184   -2.6664    0.0000 O   0  0  0  0  0  0  0  0  0  0  0  0
    5.3329   -3.0789    0.0000 C   0  0  0  0  0  0  0  0  0  0  0  0
    5.3329   -3.9039    0.0000 O   0  0  0  0  0  0  0  0  0  0  0  0
    6.0474   -2.6664    0.0000 C   0  0  3  0  0  0  0  0  0  0  0  0
    6.0474   -1.8414    0.0000 N   0  0  0  0  0  0  0  0  0  0  0  0
    6.8724   -1.8414    0.0000 C   0  0  0  0  0  0  0  0  0  0  0  0
    7.2849   -2.5559    0.0000 O   0  0  0  0  0  0  0  0  0  0  0  0
    7.2849   -1.1270    0.0000 C   0  0  3  0  0  0  0  0  0  0  0  0
    8.1099   -1.1270    0.0000 C   0  0  0  0  0  0  0  0  0  0  0  0
    6.8724   -0.4125    0.0000 O   0  0  0  0  0  0  0  0  0  0  0  0
    7.5868    0.0000    0.0000 C   0  0  0  0  0  0  0  0  0  0  0  0
    8.3013   -0.4125    0.0000 O   0  0  0  0  0  0  0  0  0  0  0  0
    7.5868    0.8250    0.0000 C   0  0  3  0  0  0  0  0  0  0  0  0
    6.8724    1.2375    0.0000 N   0  0  0  0  0  0  0  0  0  0  0  0
    7.2849    1.9520    0.0000 C   0  0  0  0  0  0  0  0  0  0  0  0
    8.1099    1.9520    0.0000 O   0  0  0  0  0  0  0  0  0  0  0  0
    6.8724    2.6664    0.0000 C   0  0  3  0  0  0  0  0  0  0  0  0
    6.0474    2.6664    0.0000 O   0  0  0  0  0  0  0  0  0  0  0  0
    6.0474    3.4914    0.0000 C   0  0  0  0  0  0  0  0  0  0  0  0
    6.7618    3.9039    0.0000 O   0  0  0  0  0  0  0  0  0  0  0  0
    5.3329    3.9039    0.0000 C   0  0  3  0  0  0  0  0  0  0  0  0
    4.6184    3.4914    0.0000 N   0  0  0  0  0  0  0  0  0  0  0  0
    4.2059    4.2059    0.0000 C   0  0  0  0  0  0  0  0  0  0  0  0
    4.6184    4.9204    0.0000 O   0  0  0  0  0  0  0  0  0  0  0  0
    3.3809    4.2059    0.0000 C   0  0  3  0  0  0  0  0  0  0  0  0
    2.9684    4.9204    0.0000 C   0  0  0  0  0  0  0  0  0  0  0  0
    2.9684    3.4914    0.0000 O   0  0  0  0  0  0  0  0  0  0  0  0
    2.2539    3.9039    0.0000 C   0  0  0  0  0  0  0  0  0  0  0  0
    2.2539    4.7289    0.0000 O   0  0  0  0  0  0  0  0  0  0  0  0
    1.5395    3.4914    0.0000 C   0  0  3  0  0  0  0  0  0  0  0  0
    1.5395    2.6664    0.0000 N   0  0  0  0  0  0  0  0  0  0  0  0
    0.7145    2.6664    0.0000 C   0  0  0  0  0  0  0  0  0  0  0  0
    0.3020    3.3809    0.0000 O   0  0  0  0  0  0  0  0  0  0  0  0
    0.8250    3.9039    0.0000 C   0  0  0  0  0  0  0  0  0  0  0  0
    0.0180    3.7324    0.0000 C   0  0  0  0  0  0  0  0  0  0  0  0
    0.8250    4.7289    0.0000 C   0  0  0  0  0  0  0  0  0  0  0  0
    5.3329    4.7289    0.0000 C   0  0  0  0  0  0  0  0  0  0  0  0
    4.7809    5.3420    0.0000 C   0  0  0  0  0  0  0  0  0  0  0  0
    6.0474    5.1414    0.0000 C   0  0  0  0  0  0  0  0  0  0  0  0
    7.2849    3.3809    0.0000 C   0  0  0  0  0  0  0  0  0  0  0  0
    7.1133    4.1879    0.0000 C   0  0  0  0  0  0  0  0  0  0  0  0
    8.1099    3.3809    0.0000 C   0  0  0  0  0  0  0  0  0  0  0  0
    8.3013    1.2375    0.0000 C   0  0  0  0  0  0  0  0  0  0  0  0
    8.5562    2.0221    0.0000 C   0  0  0  0  0  0  0  0  0  0  0  0
    9.0158    0.8250    0.0000 C   0  0  0  0  0  0  0  0  0  0  0  0
    6.7618   -3.0789    0.0000 C   0  0  0  0  0  0  0  0  0  0  0  0
    7.5688   -2.9074    0.0000 C   0  0  0  0  0  0  0  0  0  0  0  0
    6.7618   -3.9039    0.0000 C   0  0  0  0  0  0  0  0  0  0  0  0
    4.6184   -4.0954    0.0000 C   0  0  0  0  0  0  0  0  0  0  0  0
    5.4030   -4.3503    0.0000 C   0  0  0  0  0  0  0  0  0  0  0  0
    4.2059   -4.8099    0.0000 C   0  0  0  0  0  0  0  0  0  0  0  0
    2.2539   -3.9039    0.0000 C   0  0  0  0  0  0  0  0  0  0  0  0
    2.8060   -4.5170    0.0000 C   0  0  0  0  0  0  0  0  0  0  0  0
    1.5395   -4.3164    0.0000 C   0  0  0  0  0  0  0  0  0  0  0  0
   -0.7145   -0.4125    0.0000 C   0  0  0  0  0  0  0  0  0  0  0  0
   -0.9694   -1.1971    0.0000 C   0  0  0  0  0  0  0  0  0  0  0  0
   -1.4289    0.0000    0.0000 C   0  0  0  0  0  0  0  0  0  0  0  0
  1  2  1  0  0  0  0
  2  3  1  0  0  0  0
  2  4  1  0  0  0  0
  4  5  1  0  0  0  0
  4 53  1  0  0  0  0
  5  6  1  0  0  0  0
  6  7  2  0  0  0  0
  6  8  1  0  0  0  0
  8  9  1  0  0  0  0
  8 76  1  0  0  0  0
  9 10  1  0  0  0  0
 10 11  2  0  0  0  0
 10 12  1  0  0  0  0
 12 13  1  0  0  0  0
 12 14  1  0  0  0  0
 14 15  1  0  0  0  0
 15 16  2  0  0  0  0
 15 17  1  0  0  0  0
 17 18  1  0  0  0  0
 17 73  1  0  0  0  0
 18 19  1  0  0  0  0
 19 20  2  0  0  0  0
 19 21  1  0  0  0  0
 21 22  1  0  0  0  0
 21 70  1  0  0  0  0
 22 23  1  0  0  0  0
 23 24  2  0  0  0  0
 23 25  1  0  0  0  0
 25 26  1  0  0  0  0
 25 67  1  0  0  0  0
 26 27  1  0  0  0  0
 27 28  2  0  0  0  0
 27 29  1  0  0  0  0
 29 30  1  0  0  0  0
 29 31  1  0  0  0  0
 31 32  1  0  0  0  0
 32 33  2  0  0  0  0
 32 34  1  0  0  0  0
 34 35  1  0  0  0  0
 34 64  1  0  0  0  0
 35 36  1  0  0  0  0
 36 37  2  0  0  0  0
 36 38  1  0  0  0  0
 38 39  1  0  0  0  0
 38 61  1  0  0  0  0
 39 40  1  0  0  0  0
 40 41  2  0  0  0  0
 40 42  1  0  0  0  0
 42 43  1  0  0  0  0
 42 58  1  0  0  0  0
 43 44  1  0  0  0  0
 44 45  2  0  0  0  0
 44 46  1  0  0  0  0
 46 47  1  0  0  0  0
 46 48  1  0  0  0  0
 48 49  1  0  0  0  0
 49 50  2  0  0  0  0
 49 51  1  0  0  0  0
 51 52  1  0  0  0  0
 51 55  1  0  0  0  0
 52 53  1  0  0  0  0
 53 54  2  0  0  0  0
 55 56  1  0  0  0  0
 55 57  1  0  0  0  0
 58 59  1  0  0  0  0
 58 60  1  0  0  0  0
 61 62  1  0  0  0  0
 61 63  1  0  0  0  0
 64 65  1  0  0  0  0
 64 66  1  0  0  0  0
 67 68  1  0  0  0  0
 67 69  1  0  0  0  0
 70 71  1  0  0  0  0
 70 72  1  0  0  0  0
 73 74  1  0  0  0  0
 73 75  1  0  0  0  0
 76 77  1  0  0  0  0
 76 78  1  0  0  0  0
M  END
$$$$

 OpenBabel12191814062D

 29 30  0  0  0  0  0  0  0  0999 V2000
   -0.0000   -1.6500    0.0000 C   0  0  0  0  0  0  0  0  0  0  0  0
   -0.0000   -0.8250    0.0000 C   0  0  0  0  0  0  0  0  0  0  0  0
   -0.7145   -0.4125    0.0000 C   0  0  0  0  0  0  0  0  0  0  0  0
    0.7145   -0.4125    0.0000 C   0  0  3  0  0  0  0  0  0  0  0  0
    0.0000    0.0000    0.0000 O   0  0  0  0  0  0  0  0  0  0  0  0
    0.0000    0.8250    0.0000 C   0  0  0  0  0  0  0  0  0  0  0  0
   -0.7145    1.2375    0.0000 O   0  0  0  0  0  0  0  0  0  0  0  0
    0.7145    1.2375    0.0000 C   0  0  3  0  0  0  0  0  0  0  0  0
    0.7145    2.0625    0.0000 C   0  0  0  0  0  0  0  0  0  0  0  0
    1.4289    0.8250    0.0000 C   0  0  3  0  0  0  0  0  0  0  0  0
    1.4289    0.0000    0.0000 C   0  0  0  0  0  0  0  0  0  0  0  0
    2.1434    1.2375    0.0000 O   0  0  0  0  0  0  0  0  0  0  0  0
    2.8579    0.8250    0.0000 C   0  0  0  0  0  0  0  0  0  0  0  0
    3.5724    1.2375    0.0000 O   0  0  0  0  0  0  0  0  0  0  0  0
    2.8579   -0.0000    0.0000 C   0  0  0  0  0  0  0  0  0  0  0  0
    2.1434   -0.4125    0.0000 C   0  0  3  0  0  0  0  0  0  0  0  0
    1.3229   -0.4987    0.0000 O   0  0  0  0  0  0  0  0  0  0  0  0
    2.1434   -1.2375    0.0000 C   0  0  3  0  0  0  0  0  0  0  0  0
    2.8579   -1.6500    0.0000 C   0  0  0  0  0  0  0  0  0  0  0  0
    2.8579   -2.4750    0.0000 C   0  0  0  0  0  0  0  0  0  0  0  0
    3.5724   -2.8875    0.0000 C   0  0  0  0  0  0  0  0  0  0  0  0
    3.5724   -3.7125    0.0000 C   0  0  0  0  0  0  0  0  0  0  0  0
    2.8579   -4.1250    0.0000 C   0  0  0  0  0  0  0  0  0  0  0  0
    2.1434   -3.7125    0.0000 C   0  0  0  0  0  0  0  0  0  0  0  0
    2.1434   -2.8875    0.0000 C   0  0  0  0  0  0  0  0  0  0  0  0
    1.4289   -1.6500    0.0000 N   0  0  0  0  0  0  0  0  0  0  0  0
    1.4289   -2.4750    0.0000 C   0  0  0  0  0  0  0  0  0  0  0  0
    0.7145   -1.2375    0.0000 C   0  0  0  0  0  0  0  0  0  0  0  0
    0.3789   -1.9912    0.0000 O   0  0  0  0  0  0  0  0  0  0  0  0
  1  2  1  0  0  0  0
  2  3  1  0  0  0  0
  2  4  1  0  0  0  0
  4  5  1  0  0  0  0
  4 28  1  0  0  0  0
  5  6  1  0  0  0  0
  6  7  2  0  0  0  0
  6  8  1  0  0  0  0
  8  9  1  0  0  0  0
  8 10  1  0  0  0  0
 10 11  1  0  0  0  0
 10 12  1  0  0  0  0
 12 13  1  0  0  0  0
 13 14  2  0  0  0  0
 13 15  1  0  0  0  0
 15 16  1  0  0  0  0
 16 17  1  0  0  0  0
 16 18  1  0  0  0  0
 18 19  1  0  0  0  0
 18 26  1  0  0  0  0
 19 20  1  0  0  0  0
 20 21  2  0  0  0  0
 20 25  1  0  0  0  0
 21 22  1  0  0  0  0
 22 23  2  0  0  0  0
 23 24  1  0  0  0  0
 24 25  2  0  0  0  0
 26 27  1  0  0  0  0
 26 28  1  0  0  0  0
 28 29  2  0  0  0  0
M  END
$$$$

 OpenBabel12191814062D

 28 29  0  0  0  0  0  0  0  0999 V2000
   -0.0000   -1.6500    0.0000 C   0  0  0  0  0  0  0  0  0  0  0  0
   -0.0000   -0.8250    0.0000 C   0  0  0  0  0  0  0  0  0  0  0  0
   -0.7145   -0.4125    0.0000 C   0  0  0  0  0  0  0  0  0  0  0  0
    0.7145   -0.4125    0.0000 C   0  0  3  0  0  0  0  0  0  0  0  0
    0.0000    0.0000    0.0000 O   0  0  0  0  0  0  0  0  0  0  0  0
    0.0000    0.8250    0.0000 C   0  0  0  0  0  0  0  0  0  0  0  0
   -0.7145    1.2375    0.0000 O   0  0  0  0  0  0  0  0  0  0  0  0
    0.7145    1.2375    0.0000 C   0  0  3  0  0  0  0  0  0  0  0  0
    0.7145    2.0625    0.0000 C   0  0  0  0  0  0  0  0  0  0  0  0
    1.4289    0.8250    0.0000 C   0  0  0  0  0  0  0  0  0  0  0  0
    2.1434    1.2375    0.0000 O   0  0  0  0  0  0  0  0  0  0  0  0
    2.8579    0.8250    0.0000 C   0  0  0  0  0  0  0  0  0  0  0  0
    3.5724    1.2375    0.0000 O   0  0  0  0  0  0  0  0  0  0  0  0
    2.8579   -0.0000    0.0000 C   0  0  0  0  0  0  0  0  0  0  0  0
    2.1434   -0.4125    0.0000 C   0  0  3  0  0  0  0  0  0  0  0  0
    1.4289    0.0000    0.0000 O   0  0  0  0  0  0  0  0  0  0  0  0
    2.1434   -1.2375    0.0000 C   0  0  3  0  0  0  0  0  0  0  0  0
    2.8579   -1.6500    0.0000 C   0  0  0  0  0  0  0  0  0  0  0  0
    2.8579   -2.4750    0.0000 C   0  0  0  0  0  0  0  0  0  0  0  0
    3.5724   -2.8875    0.0000 C   0  0  0  0  0  0  0  0  0  0  0  0
    3.5724   -3.7125    0.0000 C   0  0  0  0  0  0  0  0  0  0  0  0
    2.8579   -4.1250    0.0000 C   0  0  0  0  0  0  0  0  0  0  0  0
    2.1434   -3.7125    0.0000 C   0  0  0  0  0  0  0  0  0  0  0  0
    2.1434   -2.8875    0.0000 C   0  0  0  0  0  0  0  0  0  0  0  0
    1.4289   -1.6500    0.0000 N   0  0  0  0  0  0  0  0  0  0  0  0
    1.4289   -2.4750    0.0000 C   0  0  0  0  0  0  0  0  0  0  0  0
    0.7145   -1.2375    0.0000 C   0  0  0  0  0  0  0  0  0  0  0  0
    0.3789   -1.9912    0.0000 O   0  0  0  0  0  0  0  0  0  0  0  0
  1  2  1  0  0  0  0
  2  3  1  0  0  0  0
  2  4  1  0  0  0  0
  4  5  1  0  0  0  0
  4 27  1  0  0  0  0
  5  6  1  0  0  0  0
  6  7  2  0  0  0  0
  6  8  1  0  0  0  0
  8  9  1  0  0  0  0
  8 10  1  0  0  0  0
 10 11  1  0  0  0  0
 11 12  1  0  0  0  0
 12 13  2  0  0  0  0
 12 14  1  0  0  0  0
 14 15  1  0  0  0  0
 15 16  1  0  0  0  0
 15 17  1  0  0  0  0
 17 18  1  0  0  0  0
 17 25  1  0  0  0  0
 18 19  1  0  0  0  0
 19 20  2  0  0  0  0
 19 24  1  0  0  0  0
 20 21  1  0  0  0  0
 21 22  2  0  0  0  0
 22 23  1  0  0  0  0
 23 24  2  0  0  0  0
 25 26  1  0  0  0  0
 25 27  1  0  0  0  0
 27 28  2  0  0  0  0
M  END
$$$$

 OpenBabel12191814062D

 43 49  0  0  0  0  0  0  0  0999 V2000
    8.1760   -2.1479    0.0000 C   0  0  0  0  0  0  0  0  0  0  0  0
    8.3475   -1.3410    0.0000 C   0  0  0  0  0  0  0  0  0  0  0  0
    9.1321   -1.0860    0.0000 C   0  0  0  0  0  0  0  0  0  0  0  0
    7.7344   -0.7889    0.0000 C   0  0  0  0  0  0  0  0  0  0  0  0
    7.9059    0.0180    0.0000 C   0  0  3  0  0  0  0  0  0  0  0  0
    7.2929    0.5701    0.0000 N   0  0  0  0  0  0  0  0  0  0  0  0
    6.4724    0.4838    0.0000 C   0  0  0  0  0  0  0  0  0  0  0  0
    6.0599   -0.2306    0.0000 O   0  0  0  0  0  0  0  0  0  0  0  0
    6.1368    1.2375    0.0000 C   0  0  3  0  0  0  0  0  0  0  0  0
    5.4223    0.8250    0.0000 N   0  0  0  0  0  0  0  0  0  0  0  0
    4.7079    1.2375    0.0000 C   0  0  0  0  0  0  0  0  0  0  0  0
    4.7079    2.0625    0.0000 O   0  0  0  0  0  0  0  0  0  0  0  0
    3.9934    0.8250    0.0000 C   0  0  3  0  0  0  0  0  0  0  0  0
    3.9934   -0.0000    0.0000 C   0  0  0  0  0  0  0  0  0  0  0  0
    3.2789   -0.4125    0.0000 N   0  0  0  0  0  0  0  0  0  0  0  0
    3.2789   -1.2375    0.0000 C   0  0  0  0  0  0  0  0  0  0  0  0
    2.5645   -0.0000    0.0000 C   0  0  3  0  0  0  0  0  0  0  0  0
    1.8500   -0.4125    0.0000 C   0  0  0  0  0  0  0  0  0  0  0  0
    1.1355   -0.0000    0.0000 C   0  0  0  0  0  0  0  0  0  0  0  0
    0.3509   -0.2549    0.0000 C   0  0  0  0  0  0  0  0  0  0  0  0
    0.0960   -1.0396    0.0000 Br  0  0  0  0  0  0  0  0  0  0  0  0
   -0.1340    0.4125    0.0000 N   0  0  0  0  0  0  0  0  0  0  0  0
    0.3509    1.0799    0.0000 C   0  0  0  0  0  0  0  0  0  0  0  0
    0.1794    1.8869    0.0000 C   0  0  0  0  0  0  0  0  0  0  0  0
    0.7925    2.4389    0.0000 C   0  0  0  0  0  0  0  0  0  0  0  0
    1.5771    2.1840    0.0000 C   0  0  0  0  0  0  0  0  0  0  0  0
    1.8500    1.2375    0.0000 C   0  0  0  0  0  0  0  0  0  0  0  0
    2.5645    0.8250    0.0000 C   0  0  0  0  0  0  0  0  0  0  0  0
    3.2789    1.2375    0.0000 C   0  0  0  0  0  0  0  0  0  0  0  0
    1.1355    0.8250    0.0000 C   0  0  0  0  0  0  0  0  0  0  0  0
    6.7499    1.7895    0.0000 O   0  0  0  0  0  0  0  0  0  0  0  0
    7.4644    1.3770    0.0000 C   0  0  3  0  0  0  0  0  0  0  0  0
    7.5506    2.1975    0.0000 O   0  0  0  0  0  0  0  0  0  0  0  0
    8.2490    1.6320    0.0000 C   0  0  3  0  0  0  0  0  0  0  0  0
    8.5846    2.3856    0.0000 C   0  0  0  0  0  0  0  0  0  0  0  0
    9.4050    2.2994    0.0000 C   0  0  0  0  0  0  0  0  0  0  0  0
    9.5766    1.4924    0.0000 C   0  0  0  0  0  0  0  0  0  0  0  0
    8.8621    1.0799    0.0000 N   0  0  0  0  0  0  0  0  0  0  0  0
    8.6906    0.2730    0.0000 C   0  0  0  0  0  0  0  0  0  0  0  0
    9.3037   -0.2791    0.0000 O   0  0  0  0  0  0  0  0  0  0  0  0
    5.6519    1.9049    0.0000 C   0  0  0  0  0  0  0  0  0  0  0  0
    5.9874    2.6586    0.0000 C   0  0  0  0  0  0  0  0  0  0  0  0
    4.9374    2.3174    0.0000 C   0  0  0  0  0  0  0  0  0  0  0  0
  1  2  1  0  0  0  0
  2  3  1  0  0  0  0
  2  4  1  0  0  0  0
  4  5  1  0  0  0  0
  5  6  1  0  0  0  0
  5 39  1  0  0  0  0
  6  7  1  0  0  0  0
  6 32  1  0  0  0  0
  7  8  2  0  0  0  0
  7  9  1  0  0  0  0
  9 10  1  0  0  0  0
  9 31  1  0  0  0  0
  9 41  1  0  0  0  0
 10 11  1  0  0  0  0
 11 12  2  0  0  0  0
 11 13  1  0  0  0  0
 13 14  1  0  0  0  0
 13 29  1  0  0  0  0
 14 15  1  0  0  0  0
 15 16  1  0  0  0  0
 15 17  1  0  0  0  0
 17 18  1  0  0  0  0
 17 28  1  0  0  0  0
 18 19  1  0  0  0  0
 19 20  2  0  0  0  0
 19 30  1  0  0  0  0
 20 21  1  0  0  0  0
 20 22  1  0  0  0  0
 22 23  1  0  0  0  0
 23 24  2  0  0  0  0
 23 30  1  0  0  0  0
 24 25  1  0  0  0  0
 25 26  2  0  0  0  0
 26 27  1  0  0  0  0
 27 28  1  0  0  0  0
 27 30  2  0  0  0  0
 28 29  2  0  0  0  0
 31 32  1  0  0  0  0
 32 33  1  0  0  0  0
 32 34  1  0  0  0  0
 34 35  1  0  0  0  0
 34 38  1  0  0  0  0
 35 36  1  0  0  0  0
 36 37  1  0  0  0  0
 37 38  1  0  0  0  0
 38 39  1  0  0  0  0
 39 40  2  0  0  0  0
 41 42  1  0  0  0  0
 41 43  1  0  0  0  0
M  END
$$$$

 OpenBabel12191814062D

 42 48  0  0  0  0  0  0  0  0999 V2000
    8.1760   -2.1479    0.0000 C   0  0  0  0  0  0  0  0  0  0  0  0
    8.3475   -1.3410    0.0000 C   0  0  0  0  0  0  0  0  0  0  0  0
    9.1321   -1.0860    0.0000 C   0  0  0  0  0  0  0  0  0  0  0  0
    7.7344   -0.7889    0.0000 C   0  0  0  0  0  0  0  0  0  0  0  0
    7.9059    0.0180    0.0000 C   0  0  3  0  0  0  0  0  0  0  0  0
    7.2929    0.5701    0.0000 N   0  0  0  0  0  0  0  0  0  0  0  0
    6.4724    0.4838    0.0000 C   0  0  0  0  0  0  0  0  0  0  0  0
    6.0599   -0.2306    0.0000 O   0  0  0  0  0  0  0  0  0  0  0  0
    6.1368    1.2375    0.0000 C   0  0  3  0  0  0  0  0  0  0  0  0
    5.4223    0.8250    0.0000 N   0  0  0  0  0  0  0  0  0  0  0  0
    4.7079    1.2375    0.0000 C   0  0  0  0  0  0  0  0  0  0  0  0
    4.7079    2.0625    0.0000 O   0  0  0  0  0  0  0  0  0  0  0  0
    3.9934    0.8250    0.0000 C   0  0  3  0  0  0  0  0  0  0  0  0
    3.9934   -0.0000    0.0000 C   0  0  0  0  0  0  0  0  0  0  0  0
    3.2789   -0.4125    0.0000 N   0  0  0  0  0  0  0  0  0  0  0  0
    3.2789   -1.2375    0.0000 C   0  0  0  0  0  0  0  0  0  0  0  0
    2.5645   -0.0000    0.0000 C   0  0  3  0  0  0  0  0  0  0  0  0
    1.8500   -0.4125    0.0000 C   0  0  0  0  0  0  0  0  0  0  0  0
    1.1355   -0.0000    0.0000 C   0  0  0  0  0  0  0  0  0  0  0  0
    0.3509   -0.2549    0.0000 C   0  0  0  0  0  0  0  0  0  0  0  0
   -0.1340    0.4125    0.0000 N   0  0  0  0  0  0  0  0  0  0  0  0
    0.3509    1.0799    0.0000 C   0  0  0  0  0  0  0  0  0  0  0  0
    0.1794    1.8869    0.0000 C   0  0  0  0  0  0  0  0  0  0  0  0
    0.7925    2.4389    0.0000 C   0  0  0  0  0  0  0  0  0  0  0  0
    1.5771    2.1840    0.0000 C   0  0  0  0  0  0  0  0  0  0  0  0
    1.8500    1.2375    0.0000 C   0  0  0  0  0  0  0  0  0  0  0  0
    2.5645    0.8250    0.0000 C   0  0  0  0  0  0  0  0  0  0  0  0
    3.2789    1.2375    0.0000 C   0  0  0  0  0  0  0  0  0  0  0  0
    1.1355    0.8250    0.0000 C   0  0  0  0  0  0  0  0  0  0  0  0
    6.7499    1.7895    0.0000 O   0  0  0  0  0  0  0  0  0  0  0  0
    7.4644    1.3770    0.0000 C   0  0  3  0  0  0  0  0  0  0  0  0
    7.5506    2.1975    0.0000 O   0  0  0  0  0  0  0  0  0  0  0  0
    8.2490    1.6320    0.0000 C   0  0  3  0  0  0  0  0  0  0  0  0
    8.5846    2.3856    0.0000 C   0  0  0  0  0  0  0  0  0  0  0  0
    9.4050    2.2994    0.0000 C   0  0  0  0  0  0  0  0  0  0  0  0
    9.5766    1.4924    0.0000 C   0  0  0  0  0  0  0  0  0  0  0  0
    8.8621    1.0799    0.0000 N   0  0  0  0  0  0  0  0  0  0  0  0
    8.6906    0.2730    0.0000 C   0  0  0  0  0  0  0  0  0  0  0  0
    9.3037   -0.2791    0.0000 O   0  0  0  0  0  0  0  0  0  0  0  0
    5.6519    1.9049    0.0000 C   0  0  0  0  0  0  0  0  0  0  0  0
    5.9874    2.6586    0.0000 C   0  0  0  0  0  0  0  0  0  0  0  0
    4.9374    2.3174    0.0000 C   0  0  0  0  0  0  0  0  0  0  0  0
  1  2  1  0  0  0  0
  2  3  1  0  0  0  0
  2  4  1  0  0  0  0
  4  5  1  0  0  0  0
  5  6  1  0  0  0  0
  5 38  1  0  0  0  0
  6  7  1  0  0  0  0
  6 31  1  0  0  0  0
  7  8  2  0  0  0  0
  7  9  1  0  0  0  0
  9 10  1  0  0  0  0
  9 30  1  0  0  0  0
  9 40  1  0  0  0  0
 10 11  1  0  0  0  0
 11 12  2  0  0  0  0
 11 13  1  0  0  0  0
 13 14  1  0  0  0  0
 13 28  1  0  0  0  0
 14 15  1  0  0  0  0
 15 16  1  0  0  0  0
 15 17  1  0  0  0  0
 17 18  1  0  0  0  0
 17 27  1  0  0  0  0
 18 19  1  0  0  0  0
 19 20  2  0  0  0  0
 19 29  1  0  0  0  0
 20 21  1  0  0  0  0
 21 22  1  0  0  0  0
 22 23  2  0  0  0  0
 22 29  1  0  0  0  0
 23 24  1  0  0  0  0
 24 25  2  0  0  0  0
 25 26  1  0  0  0  0
 26 27  1  0  0  0  0
 26 29  2  0  0  0  0
 27 28  2  0  0  0  0
 30 31  1  0  0  0  0
 31 32  1  0  0  0  0
 31 33  1  0  0  0  0
 33 34  1  0  0  0  0
 33 37  1  0  0  0  0
 34 35  1  0  0  0  0
 35 36  1  0  0  0  0
 36 37  1  0  0  0  0
 37 38  1  0  0  0  0
 38 39  2  0  0  0  0
 40 41  1  0  0  0  0
 40 42  1  0  0  0  0
M  END
$$$$

 OpenBabel12191814062D

 43 45  0  0  0  0  0  0  0  0999 V2000
   -8.5737   -1.6500    0.0000 C   0  0  0  0  0  0  0  0  0  0  0  0
   -7.8592   -1.2375    0.0000 C   0  0  0  0  0  0  0  0  0  0  0  0
   -7.8592   -0.4125    0.0000 C   0  0  0  0  0  0  0  0  0  0  0  0
   -7.1447   -1.6500    0.0000 C   0  0  0  0  0  0  0  0  0  0  0  0
   -6.4302   -1.2375    0.0000 C   0  0  0  0  0  0  0  0  0  0  0  0
   -5.7158   -1.6500    0.0000 N   0  0  0  0  0  0  0  0  0  0  0  0
   -5.0013   -1.2375    0.0000 C   0  0  0  0  0  0  0  0  0  0  0  0
   -4.2868   -1.6500    0.0000 C   0  0  0  0  0  0  0  0  0  0  0  0
   -4.2868   -2.4750    0.0000 O   0  0  0  0  0  0  0  0  0  0  0  0
   -3.5724   -1.2375    0.0000 N   0  0  0  0  0  0  0  0  0  0  0  0
   -3.5724   -0.4125    0.0000 C   0  0  0  0  0  0  0  0  0  0  0  0
   -4.2868   -0.0000    0.0000 C   0  0  0  0  0  0  0  0  0  0  0  0
   -4.2868    0.8250    0.0000 C   0  0  0  0  0  0  0  0  0  0  0  0
   -5.0013    1.2375    0.0000 C   0  0  0  0  0  0  0  0  0  0  0  0
   -5.0013    2.0625    0.0000 C   0  0  0  0  0  0  0  0  0  0  0  0
   -4.2868    2.4750    0.0000 C   0  0  0  0  0  0  0  0  0  0  0  0
   -4.2868    3.3000    0.0000 Cl  0  0  0  0  0  0  0  0  0  0  0  0
   -3.5724    2.0625    0.0000 C   0  0  0  0  0  0  0  0  0  0  0  0
   -3.5724    1.2375    0.0000 C   0  0  0  0  0  0  0  0  0  0  0  0
   -2.8579    0.8250    0.0000 Cl  0  0  0  0  0  0  0  0  0  0  0  0
   -2.8579   -1.6500    0.0000 C   0  0  0  0  0  0  0  0  0  0  0  0
   -2.1434   -1.2375    0.0000 C   0  0  0  0  0  0  0  0  0  0  0  0
   -2.1434   -0.4125    0.0000 O   0  0  0  0  0  0  0  0  0  0  0  0
   -1.4289   -1.6500    0.0000 N   0  0  0  0  0  0  0  0  0  0  0  0
   -0.7145   -1.2375    0.0000 C   0  0  0  0  0  0  0  0  0  0  0  0
    0.0000   -1.6500    0.0000 C   0  0  0  0  0  0  0  0  0  0  0  0
    0.7145   -1.2375    0.0000 C   0  0  0  0  0  0  0  0  0  0  0  0
    1.4289   -1.6500    0.0000 C   0  0  0  0  0  0  0  0  0  0  0  0
    2.1434   -1.2375    0.0000 C   0  0  0  0  0  0  0  0  0  0  0  0
    2.8579   -1.6500    0.0000 C   0  0  0  0  0  0  0  0  0  0  0  0
    2.8579   -2.4750    0.0000 C   0  0  0  0  0  0  0  0  0  0  0  0
    2.1434   -2.8875    0.0000 C   0  0  0  0  0  0  0  0  0  0  0  0
    1.4289   -2.4750    0.0000 C   0  0  0  0  0  0  0  0  0  0  0  0
    0.7145   -0.4125    0.0000 C   0  0  0  0  0  0  0  0  0  0  0  0
    0.0000   -0.0000    0.0000 C   0  0  0  0  0  0  0  0  0  0  0  0
    0.0000    0.8250    0.0000 C   0  0  0  0  0  0  0  0  0  0  0  0
    0.7145    1.2375    0.0000 C   0  0  0  0  0  0  0  0  0  0  0  0
    1.4289    0.8250    0.0000 C   0  0  0  0  0  0  0  0  0  0  0  0
    1.4289   -0.0000    0.0000 C   0  0  0  0  0  0  0  0  0  0  0  0
   -1.4289   -2.4750    0.0000 C   0  0  0  0  0  0  0  0  0  0  0  0
   -0.7145   -2.8875    0.0000 C   0  0  0  0  0  0  0  0  0  0  0  0
    0.0000   -2.4750    0.0000 N   0  0  0  0  0  0  0  0  0  0  0  0
   -0.7145   -3.7125    0.0000 O   0  0  0  0  0  0  0  0  0  0  0  0
  1  2  1  0  0  0  0
  2  3  1  0  0  0  0
  2  4  1  0  0  0  0
  4  5  1  0  0  0  0
  5  6  1  0  0  0  0
  6  7  1  0  0  0  0
  7  8  1  0  0  0  0
  8  9  2  0  0  0  0
  8 10  1  0  0  0  0
 10 11  1  0  0  0  0
 10 21  1  0  0  0  0
 11 12  1  0  0  0  0
 12 13  1  0  0  0  0
 13 14  2  0  0  0  0
 13 19  1  0  0  0  0
 14 15  1  0  0  0  0
 15 16  2  0  0  0  0
 16 17  1  0  0  0  0
 16 18  1  0  0  0  0
 18 19  2  0  0  0  0
 19 20  1  0  0  0  0
 21 22  1  0  0  0  0
 22 23  2  0  0  0  0
 22 24  1  0  0  0  0
 24 25  1  0  0  0  0
 24 40  1  0  0  0  0
 25 26  1  0  0  0  0
 26 27  1  0  0  0  0
 27 28  1  0  0  0  0
 27 34  1  0  0  0  0
 28 29  2  0  0  0  0
 28 33  1  0  0  0  0
 29 30  1  0  0  0  0
 30 31  2  0  0  0  0
 31 32  1  0  0  0  0
 32 33  2  0  0  0  0
 34 35  2  0  0  0  0
 34 39  1  0  0  0  0
 35 36  1  0  0  0  0
 36 37  2  0  0  0  0
 37 38  1  0  0  0  0
 38 39  2  0  0  0  0
 40 41  1  0  0  0  0
 41 42  1  0  0  0  0
 41 43  2  0  0  0  0
M  END
$$$$

 OpenBabel12191814062D

 36 40  0  0  0  0  0  0  0  0999 V2000
   -2.0886   -0.6343    0.0000 C   0  0  0  0  0  0  0  0  0  0  0  0
   -1.4211   -0.1494    0.0000 C   0  0  0  0  0  0  0  0  0  0  0  0
   -1.5074    0.6711    0.0000 C   0  0  0  0  0  0  0  0  0  0  0  0
   -0.6674   -0.4849    0.0000 C   0  0  0  0  0  0  0  0  0  0  0  0
   -0.0000    0.0000    0.0000 N   0  0  0  0  0  0  0  0  0  0  0  0
   -0.0000    0.8250    0.0000 C   0  0  0  0  0  0  0  0  0  0  0  0
    0.7846    1.0799    0.0000 N   0  0  0  0  0  0  0  0  0  0  0  0
    1.0396    1.8646    0.0000 C   0  0  0  0  0  0  0  0  0  0  0  0
    0.4875    2.4777    0.0000 C   0  0  0  0  0  0  0  0  0  0  0  0
    0.7425    3.2623    0.0000 C   0  0  0  0  0  0  0  0  0  0  0  0
    1.5494    3.4338    0.0000 C   0  0  0  0  0  0  0  0  0  0  0  0
    2.1015    2.8207    0.0000 C   0  0  0  0  0  0  0  0  0  0  0  0
    1.8465    2.0361    0.0000 C   0  0  0  0  0  0  0  0  0  0  0  0
    1.2695    0.4125    0.0000 C   0  0  3  0  0  0  0  0  0  0  0  0
    1.6820    1.1270    0.0000 C   0  0  0  0  0  0  0  0  0  0  0  0
    2.5070    1.1270    0.0000 C   0  0  0  0  0  0  0  0  0  0  0  0
    2.9195    0.4125    0.0000 N   0  0  0  0  0  0  0  0  0  0  0  0
    3.7445    0.4125    0.0000 C   0  0  0  0  0  0  0  0  0  0  0  0
    4.1570   -0.3020    0.0000 C   0  0  3  0  0  0  0  0  0  0  0  0
    3.4426   -0.7145    0.0000 C   0  0  0  0  0  0  0  0  0  0  0  0
    4.8715    0.1105    0.0000 C   0  0  0  0  0  0  0  0  0  0  0  0
    4.9578    0.9310    0.0000 O   0  0  0  0  0  0  0  0  0  0  0  0
    5.7647    1.1025    0.0000 C   0  0  0  0  0  0  0  0  0  0  0  0
    6.1772    0.3881    0.0000 C   0  0  0  0  0  0  0  0  0  0  0  0
    5.6252   -0.2250    0.0000 O   0  0  0  0  0  0  0  0  0  0  0  0
    4.5695   -1.0164    0.0000 C   0  0  0  0  0  0  0  0  0  0  0  0
    5.3945   -1.0164    0.0000 C   0  0  0  0  0  0  0  0  0  0  0  0
    5.8070   -1.7309    0.0000 C   0  0  0  0  0  0  0  0  0  0  0  0
    5.3945   -2.4454    0.0000 C   0  0  0  0  0  0  0  0  0  0  0  0
    5.8070   -3.1599    0.0000 F   0  0  0  0  0  0  0  0  0  0  0  0
    4.5695   -2.4454    0.0000 C   0  0  0  0  0  0  0  0  0  0  0  0
    4.1570   -1.7309    0.0000 C   0  0  0  0  0  0  0  0  0  0  0  0
    2.5070   -0.3020    0.0000 C   0  0  0  0  0  0  0  0  0  0  0  0
    1.6820   -0.3020    0.0000 C   0  0  0  0  0  0  0  0  0  0  0  0
    0.7846   -0.2549    0.0000 C   0  0  0  0  0  0  0  0  0  0  0  0
    1.0396   -1.0396    0.0000 O   0  0  0  0  0  0  0  0  0  0  0  0
  1  2  1  0  0  0  0
  2  3  1  0  0  0  0
  2  4  1  0  0  0  0
  4  5  1  0  0  0  0
  5  6  1  0  0  0  0
  5 35  1  0  0  0  0
  6  7  1  0  0  0  0
  7  8  1  0  0  0  0
  7 14  1  0  0  0  0
  8  9  2  0  0  0  0
  8 13  1  0  0  0  0
  9 10  1  0  0  0  0
 10 11  2  0  0  0  0
 11 12  1  0  0  0  0
 12 13  2  0  0  0  0
 14 15  1  0  0  0  0
 14 34  1  0  0  0  0
 14 35  1  0  0  0  0
 15 16  1  0  0  0  0
 16 17  1  0  0  0  0
 17 18  1  0  0  0  0
 17 33  1  0  0  0  0
 18 19  1  0  0  0  0
 19 20  1  0  0  0  0
 19 21  1  0  0  0  0
 19 26  1  0  0  0  0
 21 22  1  0  0  0  0
 21 25  1  0  0  0  0
 22 23  1  0  0  0  0
 23 24  1  0  0  0  0
 24 25  1  0  0  0  0
 26 27  2  0  0  0  0
 26 32  1  0  0  0  0
 27 28  1  0  0  0  0
 28 29  2  0  0  0  0
 29 30  1  0  0  0  0
 29 31  1  0  0  0  0
 31 32  2  0  0  0  0
 33 34  1  0  0  0  0
 35 36  2  0  0  0  0
M  END
$$$$

 OpenBabel12191814062D

 27 29  0  0  0  0  0  0  0  0999 V2000
   -2.7792   -4.5927    0.0000 C   0  0  0  0  0  0  0  0  0  0  0  0
   -1.9690   -4.7486    0.0000 C   0  0  0  0  0  0  0  0  0  0  0  0
   -1.6990   -5.5282    0.0000 C   0  0  0  0  0  0  0  0  0  0  0  0
   -1.4289   -4.1250    0.0000 C   0  0  0  0  0  0  0  0  0  0  0  0
   -0.6188   -4.2809    0.0000 O   0  0  0  0  0  0  0  0  0  0  0  0
   -0.0787   -3.6573    0.0000 C   0  0  0  0  0  0  0  0  0  0  0  0
    0.7314   -3.8132    0.0000 C   0  0  3  0  0  0  0  0  0  0  0  0
    1.2715   -3.1895    0.0000 C   0  0  0  0  0  0  0  0  0  0  0  0
    2.0816   -3.3454    0.0000 N   0  0  0  0  0  0  0  0  0  0  0  0
    2.3517   -4.1250    0.0000 C   0  0  0  0  0  0  0  0  0  0  0  0
    3.1618   -4.2809    0.0000 C   0  0  0  0  0  0  0  0  0  0  0  0
    3.7019   -3.6573    0.0000 C   0  0  0  0  0  0  0  0  0  0  0  0
    4.5120   -3.8132    0.0000 C   0  0  0  0  0  0  0  0  0  0  0  0
    4.7821   -4.5927    0.0000 C   0  0  0  0  0  0  0  0  0  0  0  0
    4.2420   -5.2164    0.0000 C   0  0  0  0  0  0  0  0  0  0  0  0
    3.4319   -5.0605    0.0000 C   0  0  0  0  0  0  0  0  0  0  0  0
    2.6217   -2.7218    0.0000 C   0  0  0  0  0  0  0  0  0  0  0  0
    2.3517   -1.9423    0.0000 C   0  0  0  0  0  0  0  0  0  0  0  0
    2.8918   -1.3186    0.0000 C   0  0  0  0  0  0  0  0  0  0  0  0
    3.7019   -1.4745    0.0000 C   0  0  0  0  0  0  0  0  0  0  0  0
    3.9720   -2.2541    0.0000 C   0  0  0  0  0  0  0  0  0  0  0  0
    3.4319   -2.8777    0.0000 C   0  0  0  0  0  0  0  0  0  0  0  0
    1.0015   -4.5927    0.0000 N   0  0  0  0  0  0  0  0  0  0  0  0
    1.7909   -4.8325    0.0000 C   0  0  0  0  0  0  0  0  0  0  0  0
    1.8068   -5.6573    0.0000 C   0  0  0  0  0  0  0  0  0  0  0  0
    1.0272   -5.9274    0.0000 C   0  0  0  0  0  0  0  0  0  0  0  0
    0.5295   -5.2694    0.0000 C   0  0  0  0  0  0  0  0  0  0  0  0
  1  2  1  0  0  0  0
  2  3  1  0  0  0  0
  2  4  1  0  0  0  0
  4  5  1  0  0  0  0
  5  6  1  0  0  0  0
  6  7  1  0  0  0  0
  7  8  1  0  0  0  0
  7 23  1  0  0  0  0
  8  9  1  0  0  0  0
  9 10  1  0  0  0  0
  9 17  1  0  0  0  0
 10 11  1  0  0  0  0
 11 12  2  0  0  0  0
 11 16  1  0  0  0  0
 12 13  1  0  0  0  0
 13 14  2  0  0  0  0
 14 15  1  0  0  0  0
 15 16  2  0  0  0  0
 17 18  2  0  0  0  0
 17 22  1  0  0  0  0
 18 19  1  0  0  0  0
 19 20  2  0  0  0  0
 20 21  1  0  0  0  0
 21 22  2  0  0  0  0
 23 24  1  0  0  0  0
 23 27  1  0  0  0  0
 24 25  1  0  0  0  0
 25 26  1  0  0  0  0
 26 27  1  0  0  0  0
M  END
$$$$

 OpenBabel12191814062D

 32 34  0  0  0  0  0  0  0  0999 V2000
    5.4665   -2.8964    0.0000 C   0  0  0  0  0  0  0  0  0  0  0  0
    4.6415   -2.8964    0.0000 C   0  0  0  0  0  0  0  0  0  0  0  0
    4.2290   -3.6109    0.0000 C   0  0  0  0  0  0  0  0  0  0  0  0
    4.2290   -2.1820    0.0000 N   0  0  0  0  0  0  0  0  0  0  0  0
    3.4040   -2.1820    0.0000 C   0  0  0  0  0  0  0  0  0  0  0  0
    2.9915   -1.4675    0.0000 C   0  0  3  0  0  0  0  0  0  0  0  0
    3.4040   -0.7530    0.0000 O   0  0  0  0  0  0  0  0  0  0  0  0
    2.1665   -1.4675    0.0000 C   0  0  0  0  0  0  0  0  0  0  0  0
    1.7540   -2.1820    0.0000 N   0  0  0  0  0  0  0  0  0  0  0  0
    2.0896   -2.9356    0.0000 C   0  0  0  0  0  0  0  0  0  0  0  0
    2.8966   -3.1072    0.0000 C   0  0  0  0  0  0  0  0  0  0  0  0
    1.4765   -3.4877    0.0000 C   0  0  0  0  0  0  0  0  0  0  0  0
    1.5627   -4.3081    0.0000 C   0  0  0  0  0  0  0  0  0  0  0  0
    2.3164   -4.6437    0.0000 O   0  0  0  0  0  0  0  0  0  0  0  0
    0.8953   -4.7931    0.0000 C   0  0  0  0  0  0  0  0  0  0  0  0
    0.9815   -5.6135    0.0000 C   0  0  0  0  0  0  0  0  0  0  0  0
    0.3141   -6.0985    0.0000 C   0  0  0  0  0  0  0  0  0  0  0  0
   -0.4396   -5.7629    0.0000 C   0  0  0  0  0  0  0  0  0  0  0  0
   -0.5258   -4.9424    0.0000 C   0  0  0  0  0  0  0  0  0  0  0  0
    0.1416   -4.4575    0.0000 C   0  0  0  0  0  0  0  0  0  0  0  0
    0.7620   -3.0752    0.0000 C   0  0  0  0  0  0  0  0  0  0  0  0
    0.0083   -3.4107    0.0000 O   0  0  0  0  0  0  0  0  0  0  0  0
    0.9336   -2.2682    0.0000 N   0  0  0  0  0  0  0  0  0  0  0  0
    0.3815   -1.6551    0.0000 C   0  0  0  0  0  0  0  0  0  0  0  0
   -0.4255   -1.8266    0.0000 C   0  0  0  0  0  0  0  0  0  0  0  0
   -0.9775   -1.2135    0.0000 C   0  0  0  0  0  0  0  0  0  0  0  0
   -0.7225   -0.4289    0.0000 C   0  0  0  0  0  0  0  0  0  0  0  0
    0.0844   -0.2574    0.0000 C   0  0  0  0  0  0  0  0  0  0  0  0
    0.6365   -0.8705    0.0000 C   0  0  0  0  0  0  0  0  0  0  0  0
    4.6415   -1.4675    0.0000 C   0  0  0  0  0  0  0  0  0  0  0  0
    4.2290   -0.7530    0.0000 C   0  0  0  0  0  0  0  0  0  0  0  0
    5.4665   -1.4675    0.0000 C   0  0  0  0  0  0  0  0  0  0  0  0
  1  2  1  0  0  0  0
  2  3  1  0  0  0  0
  2  4  1  0  0  0  0
  4  5  1  0  0  0  0
  4 30  1  0  0  0  0
  5  6  1  0  0  0  0
  6  7  1  0  0  0  0
  6  8  1  0  0  0  0
  8  9  1  0  0  0  0
  9 10  1  0  0  0  0
  9 23  1  0  0  0  0
 10 11  1  0  0  0  0
 10 12  2  0  0  0  0
 12 13  1  0  0  0  0
 12 21  1  0  0  0  0
 13 14  2  0  0  0  0
 13 15  1  0  0  0  0
 15 16  2  0  0  0  0
 15 20  1  0  0  0  0
 16 17  1  0  0  0  0
 17 18  2  0  0  0  0
 18 19  1  0  0  0  0
 19 20  2  0  0  0  0
 21 22  2  0  0  0  0
 21 23  1  0  0  0  0
 23 24  1  0  0  0  0
 24 25  2  0  0  0  0
 24 29  1  0  0  0  0
 25 26  1  0  0  0  0
 26 27  2  0  0  0  0
 27 28  1  0  0  0  0
 28 29  2  0  0  0  0
 30 31  1  0  0  0  0
 30 32  1  0  0  0  0
M  END
$$$$

 OpenBabel12191814062D

 27 28  0  0  0  0  0  0  0  0999 V2000
    4.3736   -2.4005    0.0000 C   0  0  0  0  0  0  0  0  0  0  0  0
    3.5486   -2.4005    0.0000 C   0  0  0  0  0  0  0  0  0  0  0  0
    3.1361   -1.6861    0.0000 C   0  0  0  0  0  0  0  0  0  0  0  0
    3.1361   -3.1150    0.0000 N   0  0  0  0  0  0  0  0  0  0  0  0
    2.3111   -3.1150    0.0000 C   0  0  0  0  0  0  0  0  0  0  0  0
    1.8986   -3.8295    0.0000 C   0  0  3  0  0  0  0  0  0  0  0  0
    2.3111   -4.5440    0.0000 O   0  0  0  0  0  0  0  0  0  0  0  0
    1.0736   -3.8295    0.0000 C   0  0  0  0  0  0  0  0  0  0  0  0
    0.6611   -4.5440    0.0000 O   0  0  0  0  0  0  0  0  0  0  0  0
   -0.1639   -4.5440    0.0000 C   0  0  0  0  0  0  0  0  0  0  0  0
   -0.6488   -5.2114    0.0000 C   0  0  0  0  0  0  0  0  0  0  0  0
   -0.3939   -5.9960    0.0000 C   0  0  0  0  0  0  0  0  0  0  0  0
    0.4131   -6.1675    0.0000 O   0  0  0  0  0  0  0  0  0  0  0  0
   -0.9459   -6.6091    0.0000 C   0  0  0  0  0  0  0  0  0  0  0  0
   -0.6910   -7.3937    0.0000 C   0  0  0  0  0  0  0  0  0  0  0  0
   -1.2430   -8.0068    0.0000 C   0  0  0  0  0  0  0  0  0  0  0  0
   -2.0500   -7.8353    0.0000 C   0  0  0  0  0  0  0  0  0  0  0  0
   -2.3049   -7.0507    0.0000 C   0  0  0  0  0  0  0  0  0  0  0  0
   -1.7529   -6.4376    0.0000 C   0  0  0  0  0  0  0  0  0  0  0  0
   -1.4334   -4.9565    0.0000 C   0  0  0  0  0  0  0  0  0  0  0  0
   -2.1009   -5.4414    0.0000 C   0  0  0  0  0  0  0  0  0  0  0  0
   -1.4334   -4.1315    0.0000 N   0  0  0  0  0  0  0  0  0  0  0  0
   -0.6488   -3.8765    0.0000 N   0  0  0  0  0  0  0  0  0  0  0  0
   -0.3939   -3.0919    0.0000 C   0  0  0  0  0  0  0  0  0  0  0  0
    3.5486   -3.8295    0.0000 C   0  0  0  0  0  0  0  0  0  0  0  0
    4.3736   -3.8295    0.0000 C   0  0  0  0  0  0  0  0  0  0  0  0
    3.1361   -4.5440    0.0000 C   0  0  0  0  0  0  0  0  0  0  0  0
  1  2  1  0  0  0  0
  2  3  1  0  0  0  0
  2  4  1  0  0  0  0
  4  5  1  0  0  0  0
  4 25  1  0  0  0  0
  5  6  1  0  0  0  0
  6  7  1  0  0  0  0
  6  8  1  0  0  0  0
  8  9  1  0  0  0  0
  9 10  1  0  0  0  0
 10 11  2  0  0  0  0
 10 23  1  0  0  0  0
 11 12  1  0  0  0  0
 11 20  1  0  0  0  0
 12 13  2  0  0  0  0
 12 14  1  0  0  0  0
 14 15  2  0  0  0  0
 14 19  1  0  0  0  0
 15 16  1  0  0  0  0
 16 17  2  0  0  0  0
 17 18  1  0  0  0  0
 18 19  2  0  0  0  0
 20 21  1  0  0  0  0
 20 22  2  0  0  0  0
 22 23  1  0  0  0  0
 23 24  1  0  0  0  0
 25 26  1  0  0  0  0
 25 27  1  0  0  0  0
M  END
$$$$

 OpenBabel12191814062D

 32 34  0  0  0  0  0  0  0  0999 V2000
    5.6381    0.7684    0.0000 C   0  0  0  0  0  0  0  0  0  0  0  0
    4.8131    0.7684    0.0000 C   0  0  0  0  0  0  0  0  0  0  0  0
    4.4006    1.4829    0.0000 C   0  0  0  0  0  0  0  0  0  0  0  0
    4.4006    0.0540    0.0000 N   0  0  0  0  0  0  0  0  0  0  0  0
    3.5756    0.0540    0.0000 C   0  0  0  0  0  0  0  0  0  0  0  0
    3.1631   -0.6605    0.0000 C   0  0  3  0  0  0  0  0  0  0  0  0
    3.5756   -1.3750    0.0000 O   0  0  0  0  0  0  0  0  0  0  0  0
    2.3381   -0.6605    0.0000 C   0  0  0  0  0  0  0  0  0  0  0  0
    1.9256   -1.3750    0.0000 O   0  0  0  0  0  0  0  0  0  0  0  0
    1.1006   -1.3750    0.0000 C   0  0  0  0  0  0  0  0  0  0  0  0
    0.6156   -2.0424    0.0000 C   0  0  0  0  0  0  0  0  0  0  0  0
    0.8706   -2.8270    0.0000 C   0  0  0  0  0  0  0  0  0  0  0  0
    1.6775   -2.9986    0.0000 O   0  0  0  0  0  0  0  0  0  0  0  0
    0.3185   -3.4401    0.0000 C   0  0  0  0  0  0  0  0  0  0  0  0
    0.5735   -4.2248    0.0000 C   0  0  0  0  0  0  0  0  0  0  0  0
    0.0214   -4.8379    0.0000 C   0  0  0  0  0  0  0  0  0  0  0  0
   -0.7855   -4.6663    0.0000 C   0  0  0  0  0  0  0  0  0  0  0  0
   -1.0405   -3.8817    0.0000 C   0  0  0  0  0  0  0  0  0  0  0  0
   -0.4884   -3.2686    0.0000 C   0  0  0  0  0  0  0  0  0  0  0  0
   -0.1690   -1.7875    0.0000 C   0  0  0  0  0  0  0  0  0  0  0  0
   -0.8364   -2.2724    0.0000 C   0  0  0  0  0  0  0  0  0  0  0  0
   -0.1690   -0.9625    0.0000 N   0  0  0  0  0  0  0  0  0  0  0  0
    0.6156   -0.7075    0.0000 N   0  0  0  0  0  0  0  0  0  0  0  0
    0.8706    0.0771    0.0000 C   0  0  0  0  0  0  0  0  0  0  0  0
    0.3185    0.6902    0.0000 C   0  0  0  0  0  0  0  0  0  0  0  0
    0.5735    1.4748    0.0000 C   0  0  0  0  0  0  0  0  0  0  0  0
    1.3805    1.6463    0.0000 C   0  0  0  0  0  0  0  0  0  0  0  0
    1.9325    1.0332    0.0000 C   0  0  0  0  0  0  0  0  0  0  0  0
    1.6775    0.2486    0.0000 C   0  0  0  0  0  0  0  0  0  0  0  0
    4.8131   -0.6605    0.0000 C   0  0  0  0  0  0  0  0  0  0  0  0
    5.6381   -0.6605    0.0000 C   0  0  0  0  0  0  0  0  0  0  0  0
    4.4006   -1.3750    0.0000 C   0  0  0  0  0  0  0  0  0  0  0  0
  1  2  1  0  0  0  0
  2  3  1  0  0  0  0
  2  4  1  0  0  0  0
  4  5  1  0  0  0  0
  4 30  1  0  0  0  0
  5  6  1  0  0  0  0
  6  7  1  0  0  0  0
  6  8  1  0  0  0  0
  8  9  1  0  0  0  0
  9 10  1  0  0  0  0
 10 11  2  0  0  0  0
 10 23  1  0  0  0  0
 11 12  1  0  0  0  0
 11 20  1  0  0  0  0
 12 13  2  0  0  0  0
 12 14  1  0  0  0  0
 14 15  2  0  0  0  0
 14 19  1  0  0  0  0
 15 16  1  0  0  0  0
 16 17  2  0  0  0  0
 17 18  1  0  0  0  0
 18 19  2  0  0  0  0
 20 21  1  0  0  0  0
 20 22  2  0  0  0  0
 22 23  1  0  0  0  0
 23 24  1  0  0  0  0
 24 25  2  0  0  0  0
 24 29  1  0  0  0  0
 25 26  1  0  0  0  0
 26 27  2  0  0  0  0
 27 28  1  0  0  0  0
 28 29  2  0  0  0  0
 30 31  1  0  0  0  0
 30 32  1  0  0  0  0
M  END
$$$$

 OpenBabel12191814062D

 28 29  0  0  0  0  0  0  0  0999 V2000
   -0.2724   -2.2836    0.0000 C   0  0  0  0  0  0  0  0  0  0  0  0
   -1.0974   -2.2836    0.0000 C   0  0  0  0  0  0  0  0  0  0  0  0
   -1.5099   -1.5691    0.0000 C   0  0  0  0  0  0  0  0  0  0  0  0
   -1.5099   -2.9980    0.0000 N   0  0  0  0  0  0  0  0  0  0  0  0
   -2.3349   -2.9980    0.0000 C   0  0  0  0  0  0  0  0  0  0  0  0
   -2.7474   -3.7125    0.0000 C   0  0  3  0  0  0  0  0  0  0  0  0
   -2.3349   -4.4270    0.0000 O   0  0  0  0  0  0  0  0  0  0  0  0
   -3.5724   -3.7125    0.0000 C   0  0  0  0  0  0  0  0  0  0  0  0
   -3.9849   -4.4270    0.0000 O   0  0  0  0  0  0  0  0  0  0  0  0
   -4.8099   -4.4270    0.0000 C   0  0  0  0  0  0  0  0  0  0  0  0
   -5.2224   -5.1414    0.0000 C   0  0  0  0  0  0  0  0  0  0  0  0
   -6.0474   -5.1414    0.0000 C   0  0  0  0  0  0  0  0  0  0  0  0
   -6.4599   -4.4270    0.0000 C   0  0  0  0  0  0  0  0  0  0  0  0
   -6.0474   -3.7125    0.0000 C   0  0  0  0  0  0  0  0  0  0  0  0
   -5.2224   -3.7125    0.0000 C   0  0  0  0  0  0  0  0  0  0  0  0
   -7.2849   -4.4270    0.0000 C   0  0  0  0  0  0  0  0  0  0  0  0
   -7.6974   -5.1414    0.0000 O   0  0  0  0  0  0  0  0  0  0  0  0
   -7.6974   -3.7125    0.0000 C   0  0  0  0  0  0  0  0  0  0  0  0
   -8.5224   -3.7125    0.0000 C   0  0  0  0  0  0  0  0  0  0  0  0
   -8.9349   -4.4270    0.0000 C   0  0  0  0  0  0  0  0  0  0  0  0
   -8.5224   -5.1414    0.0000 C   0  0  0  0  0  0  0  0  0  0  0  0
   -8.9349   -5.8559    0.0000 C   0  0  0  0  0  0  0  0  0  0  0  0
   -9.7599   -5.8559    0.0000 C   0  0  0  0  0  0  0  0  0  0  0  0
  -10.1724   -5.1414    0.0000 C   0  0  0  0  0  0  0  0  0  0  0  0
   -9.7599   -4.4270    0.0000 C   0  0  0  0  0  0  0  0  0  0  0  0
   -1.0974   -3.7125    0.0000 C   0  0  0  0  0  0  0  0  0  0  0  0
   -0.2724   -3.7125    0.0000 C   0  0  0  0  0  0  0  0  0  0  0  0
   -1.5099   -4.4270    0.0000 C   0  0  0  0  0  0  0  0  0  0  0  0
  1  2  1  0  0  0  0
  2  3  1  0  0  0  0
  2  4  1  0  0  0  0
  4  5  1  0  0  0  0
  4 26  1  0  0  0  0
  5  6  1  0  0  0  0
  6  7  1  0  0  0  0
  6  8  1  0  0  0  0
  8  9  1  0  0  0  0
  9 10  1  0  0  0  0
 10 11  2  0  0  0  0
 10 15  1  0  0  0  0
 11 12  1  0  0  0  0
 12 13  2  0  0  0  0
 13 14  1  0  0  0  0
 13 16  1  0  0  0  0
 14 15  2  0  0  0  0
 16 17  2  0  0  0  0
 16 18  1  0  0  0  0
 18 19  1  0  0  0  0
 19 20  1  0  0  0  0
 20 21  2  0  0  0  0
 20 25  1  0  0  0  0
 21 22  1  0  0  0  0
 22 23  2  0  0  0  0
 23 24  1  0  0  0  0
 24 25  2  0  0  0  0
 26 27  1  0  0  0  0
 26 28  1  0  0  0  0
M  END
$$$$

 OpenBabel12191814062D

 29 30  0  0  0  0  0  0  0  0999 V2000
    2.5855   -5.1414    0.0000 C   0  0  0  0  0  0  0  0  0  0  0  0
    1.7605   -5.1414    0.0000 C   0  0  0  0  0  0  0  0  0  0  0  0
    1.3480   -5.8559    0.0000 C   0  0  0  0  0  0  0  0  0  0  0  0
    1.3480   -4.4270    0.0000 N   0  0  0  0  0  0  0  0  0  0  0  0
    0.5230   -4.4270    0.0000 C   0  0  0  0  0  0  0  0  0  0  0  0
    0.1105   -3.7125    0.0000 C   0  0  3  0  0  0  0  0  0  0  0  0
    0.5230   -2.9980    0.0000 O   0  0  0  0  0  0  0  0  0  0  0  0
   -0.7145   -3.7125    0.0000 C   0  0  0  0  0  0  0  0  0  0  0  0
   -1.1270   -2.9980    0.0000 O   0  0  0  0  0  0  0  0  0  0  0  0
   -1.9520   -2.9980    0.0000 C   0  0  0  0  0  0  0  0  0  0  0  0
   -2.3645   -3.7125    0.0000 C   0  0  0  0  0  0  0  0  0  0  0  0
   -3.1895   -3.7125    0.0000 C   0  0  0  0  0  0  0  0  0  0  0  0
   -3.6020   -2.9980    0.0000 C   0  0  0  0  0  0  0  0  0  0  0  0
   -4.4270   -2.9980    0.0000 O   0  0  0  0  0  0  0  0  0  0  0  0
   -3.1895   -2.2836    0.0000 C   0  0  0  0  0  0  0  0  0  0  0  0
   -2.3645   -2.2836    0.0000 C   0  0  0  0  0  0  0  0  0  0  0  0
   -1.9520   -1.5691    0.0000 C   0  0  0  0  0  0  0  0  0  0  0  0
   -2.3645   -0.8546    0.0000 O   0  0  0  0  0  0  0  0  0  0  0  0
   -1.1270   -1.5691    0.0000 C   0  0  0  0  0  0  0  0  0  0  0  0
   -0.7145   -0.8546    0.0000 C   0  0  0  0  0  0  0  0  0  0  0  0
   -1.1270   -0.1401    0.0000 C   0  0  0  0  0  0  0  0  0  0  0  0
   -1.9520   -0.1401    0.0000 C   0  0  0  0  0  0  0  0  0  0  0  0
   -2.3645    0.5743    0.0000 C   0  0  0  0  0  0  0  0  0  0  0  0
   -1.9520    1.2888    0.0000 C   0  0  0  0  0  0  0  0  0  0  0  0
   -1.1270    1.2888    0.0000 C   0  0  0  0  0  0  0  0  0  0  0  0
   -0.7145    0.5743    0.0000 C   0  0  0  0  0  0  0  0  0  0  0  0
    1.7605   -3.7125    0.0000 C   0  0  0  0  0  0  0  0  0  0  0  0
    1.3480   -2.9980    0.0000 C   0  0  0  0  0  0  0  0  0  0  0  0
    2.5855   -3.7125    0.0000 C   0  0  0  0  0  0  0  0  0  0  0  0
  1  2  1  0  0  0  0
  2  3  1  0  0  0  0
  2  4  1  0  0  0  0
  4  5  1  0  0  0  0
  4 27  1  0  0  0  0
  5  6  1  0  0  0  0
  6  7  1  0  0  0  0
  6  8  1  0  0  0  0
  8  9  1  0  0  0  0
  9 10  1  0  0  0  0
 10 11  2  0  0  0  0
 10 16  1  0  0  0  0
 11 12  1  0  0  0  0
 12 13  2  0  0  0  0
 13 14  1  0  0  0  0
 13 15  1  0  0  0  0
 15 16  2  0  0  0  0
 16 17  1  0  0  0  0
 17 18  2  0  0  0  0
 17 19  1  0  0  0  0
 19 20  1  0  0  0  0
 20 21  1  0  0  0  0
 21 22  2  0  0  0  0
 21 26  1  0  0  0  0
 22 23  1  0  0  0  0
 23 24  2  0  0  0  0
 24 25  1  0  0  0  0
 25 26  2  0  0  0  0
 27 28  1  0  0  0  0
 27 29  1  0  0  0  0
M  END
$$$$

 OpenBabel12191814062D

 36 38  0  0  0  0  0  0  0  0999 V2000
    5.4434   -2.2836    0.0000 C   0  0  0  0  0  0  0  0  0  0  0  0
    4.6184   -2.2836    0.0000 C   0  0  0  0  0  0  0  0  0  0  0  0
    4.2059   -1.5691    0.0000 C   0  0  0  0  0  0  0  0  0  0  0  0
    4.2059   -2.9980    0.0000 N   0  0  0  0  0  0  0  0  0  0  0  0
    3.3809   -2.9980    0.0000 C   0  0  0  0  0  0  0  0  0  0  0  0
    2.9684   -3.7125    0.0000 C   0  0  3  0  0  0  0  0  0  0  0  0
    3.3809   -4.4270    0.0000 O   0  0  0  0  0  0  0  0  0  0  0  0
    2.1434   -3.7125    0.0000 C   0  0  0  0  0  0  0  0  0  0  0  0
    1.7309   -4.4270    0.0000 O   0  0  0  0  0  0  0  0  0  0  0  0
    0.9059   -4.4270    0.0000 C   0  0  0  0  0  0  0  0  0  0  0  0
    0.4934   -5.1414    0.0000 C   0  0  0  0  0  0  0  0  0  0  0  0
   -0.3316   -5.1414    0.0000 C   0  0  0  0  0  0  0  0  0  0  0  0
   -0.7441   -4.4270    0.0000 C   0  0  0  0  0  0  0  0  0  0  0  0
   -1.5691   -4.4270    0.0000 O   0  0  0  0  0  0  0  0  0  0  0  0
   -1.9816   -5.1414    0.0000 C   0  0  0  0  0  0  0  0  0  0  0  0
   -2.8066   -5.1414    0.0000 C   0  0  0  0  0  0  0  0  0  0  0  0
   -3.2191   -5.8559    0.0000 C   0  0  0  0  0  0  0  0  0  0  0  0
   -4.0441   -5.8559    0.0000 C   0  0  0  0  0  0  0  0  0  0  0  0
   -4.4566   -5.1414    0.0000 C   0  0  0  0  0  0  0  0  0  0  0  0
   -4.0441   -4.4270    0.0000 C   0  0  0  0  0  0  0  0  0  0  0  0
   -3.2191   -4.4270    0.0000 C   0  0  0  0  0  0  0  0  0  0  0  0
   -0.3316   -3.7125    0.0000 C   0  0  0  0  0  0  0  0  0  0  0  0
    0.4934   -3.7125    0.0000 C   0  0  0  0  0  0  0  0  0  0  0  0
    0.9059   -2.9980    0.0000 C   0  0  0  0  0  0  0  0  0  0  0  0
    1.7309   -2.9980    0.0000 O   0  0  0  0  0  0  0  0  0  0  0  0
    0.4934   -2.2836    0.0000 C   0  0  0  0  0  0  0  0  0  0  0  0
   -0.3316   -2.2836    0.0000 C   0  0  0  0  0  0  0  0  0  0  0  0
   -0.7441   -1.5691    0.0000 C   0  0  0  0  0  0  0  0  0  0  0  0
   -1.5691   -1.5691    0.0000 C   0  0  0  0  0  0  0  0  0  0  0  0
   -1.9816   -0.8546    0.0000 C   0  0  0  0  0  0  0  0  0  0  0  0
   -1.5691   -0.1401    0.0000 C   0  0  0  0  0  0  0  0  0  0  0  0
   -0.7441   -0.1401    0.0000 C   0  0  0  0  0  0  0  0  0  0  0  0
   -0.3316   -0.8546    0.0000 C   0  0  0  0  0  0  0  0  0  0  0  0
    4.6184   -3.7125    0.0000 C   0  0  0  0  0  0  0  0  0  0  0  0
    5.4434   -3.7125    0.0000 C   0  0  0  0  0  0  0  0  0  0  0  0
    4.2059   -4.4270    0.0000 C   0  0  0  0  0  0  0  0  0  0  0  0
  1  2  1  0  0  0  0
  2  3  1  0  0  0  0
  2  4  1  0  0  0  0
  4  5  1  0  0  0  0
  4 34  1  0  0  0  0
  5  6  1  0  0  0  0
  6  7  1  0  0  0  0
  6  8  1  0  0  0  0
  8  9  1  0  0  0  0
  9 10  1  0  0  0  0
 10 11  2  0  0  0  0
 10 23  1  0  0  0  0
 11 12  1  0  0  0  0
 12 13  2  0  0  0  0
 13 14  1  0  0  0  0
 13 22  1  0  0  0  0
 14 15  1  0  0  0  0
 15 16  1  0  0  0  0
 16 17  2  0  0  0  0
 16 21  1  0  0  0  0
 17 18  1  0  0  0  0
 18 19  2  0  0  0  0
 19 20  1  0  0  0  0
 20 21  2  0  0  0  0
 22 23  2  0  0  0  0
 23 24  1  0  0  0  0
 24 25  2  0  0  0  0
 24 26  1  0  0  0  0
 26 27  1  0  0  0  0
 27 28  1  0  0  0  0
 28 29  2  0  0  0  0
 28 33  1  0  0  0  0
 29 30  1  0  0  0  0
 30 31  2  0  0  0  0
 31 32  1  0  0  0  0
 32 33  2  0  0  0  0
 34 35  1  0  0  0  0
 34 36  1  0  0  0  0
M  END
$$$$

 OpenBabel12191814062D

 32 34  0  0  0  0  0  0  0  0999 V2000
    8.3013   -0.1914    0.0000 C   0  0  0  0  0  0  0  0  0  0  0  0
    7.4763   -0.1914    0.0000 C   0  0  0  0  0  0  0  0  0  0  0  0
    7.0638   -0.9059    0.0000 C   0  0  0  0  0  0  0  0  0  0  0  0
    7.0638    0.5230    0.0000 N   0  0  0  0  0  0  0  0  0  0  0  0
    6.2388    0.5230    0.0000 C   0  0  0  0  0  0  0  0  0  0  0  0
    5.8263    1.2375    0.0000 C   0  0  3  0  0  0  0  0  0  0  0  0
    6.2388    1.9520    0.0000 O   0  0  0  0  0  0  0  0  0  0  0  0
    5.0013    1.2375    0.0000 C   0  0  0  0  0  0  0  0  0  0  0  0
    4.5888    0.5230    0.0000 O   0  0  0  0  0  0  0  0  0  0  0  0
    3.7638    0.5230    0.0000 C   0  0  0  0  0  0  0  0  0  0  0  0
    3.3513   -0.1914    0.0000 C   0  0  0  0  0  0  0  0  0  0  0  0
    2.5263   -0.1914    0.0000 C   0  0  0  0  0  0  0  0  0  0  0  0
    2.1138    0.5230    0.0000 C   0  0  0  0  0  0  0  0  0  0  0  0
    2.5263    1.2375    0.0000 C   0  0  0  0  0  0  0  0  0  0  0  0
    3.3513    1.2375    0.0000 C   0  0  0  0  0  0  0  0  0  0  0  0
    3.7638    1.9520    0.0000 C   0  0  0  0  0  0  0  0  0  0  0  0
    4.5888    1.9520    0.0000 O   0  0  0  0  0  0  0  0  0  0  0  0
    3.3513    2.6664    0.0000 C   0  0  0  0  0  0  0  0  0  0  0  0
    3.7638    3.3809    0.0000 C   0  0  0  0  0  0  0  0  0  0  0  0
    3.3513    4.0954    0.0000 C   0  0  0  0  0  0  0  0  0  0  0  0
    2.5263    4.0954    0.0000 C   0  0  0  0  0  0  0  0  0  0  0  0
    2.1138    4.8099    0.0000 C   0  0  0  0  0  0  0  0  0  0  0  0
    2.5263    5.5243    0.0000 C   0  0  0  0  0  0  0  0  0  0  0  0
    3.3513    5.5243    0.0000 C   0  0  0  0  0  0  0  0  0  0  0  0
    3.7638    6.2388    0.0000 C   0  0  0  0  0  0  0  0  0  0  0  0
    4.5888    6.2388    0.0000 C   0  0  0  0  0  0  0  0  0  0  0  0
    5.0013    5.5243    0.0000 C   0  0  0  0  0  0  0  0  0  0  0  0
    4.5888    4.8099    0.0000 C   0  0  0  0  0  0  0  0  0  0  0  0
    3.7638    4.8099    0.0000 C   0  0  0  0  0  0  0  0  0  0  0  0
    7.4763    1.2375    0.0000 C   0  0  0  0  0  0  0  0  0  0  0  0
    7.0638    1.9520    0.0000 C   0  0  0  0  0  0  0  0  0  0  0  0
    8.3013    1.2375    0.0000 C   0  0  0  0  0  0  0  0  0  0  0  0
  1  2  1  0  0  0  0
  2  3  1  0  0  0  0
  2  4  1  0  0  0  0
  4  5  1  0  0  0  0
  4 30  1  0  0  0  0
  5  6  1  0  0  0  0
  6  7  1  0  0  0  0
  6  8  1  0  0  0  0
  8  9  1  0  0  0  0
  9 10  1  0  0  0  0
 10 11  2  0  0  0  0
 10 15  1  0  0  0  0
 11 12  1  0  0  0  0
 12 13  2  0  0  0  0
 13 14  1  0  0  0  0
 14 15  2  0  0  0  0
 15 16  1  0  0  0  0
 16 17  2  0  0  0  0
 16 18  1  0  0  0  0
 18 19  1  0  0  0  0
 19 20  1  0  0  0  0
 20 21  2  0  0  0  0
 20 29  1  0  0  0  0
 21 22  1  0  0  0  0
 22 23  2  0  0  0  0
 23 24  1  0  0  0  0
 24 25  2  0  0  0  0
 24 29  1  0  0  0  0
 25 26  1  0  0  0  0
 26 27  2  0  0  0  0
 27 28  1  0  0  0  0
 28 29  2  0  0  0  0
 30 31  1  0  0  0  0
 30 32  1  0  0  0  0
M  END
$$$$

 OpenBabel12191814062D

 28 29  0  0  0  0  0  0  0  0999 V2000
    2.5855   -5.1414    0.0000 C   0  0  0  0  0  0  0  0  0  0  0  0
    1.7605   -5.1414    0.0000 C   0  0  0  0  0  0  0  0  0  0  0  0
    1.3480   -5.8559    0.0000 C   0  0  0  0  0  0  0  0  0  0  0  0
    1.3480   -4.4270    0.0000 N   0  0  0  0  0  0  0  0  0  0  0  0
    0.5230   -4.4270    0.0000 C   0  0  0  0  0  0  0  0  0  0  0  0
    0.1105   -3.7125    0.0000 C   0  0  3  0  0  0  0  0  0  0  0  0
    0.5230   -2.9980    0.0000 O   0  0  0  0  0  0  0  0  0  0  0  0
   -0.7145   -3.7125    0.0000 C   0  0  0  0  0  0  0  0  0  0  0  0
   -1.1270   -2.9980    0.0000 O   0  0  0  0  0  0  0  0  0  0  0  0
   -1.9520   -2.9980    0.0000 C   0  0  0  0  0  0  0  0  0  0  0  0
   -2.3645   -3.7125    0.0000 C   0  0  0  0  0  0  0  0  0  0  0  0
   -3.1895   -3.7125    0.0000 C   0  0  0  0  0  0  0  0  0  0  0  0
   -3.6020   -2.9980    0.0000 C   0  0  0  0  0  0  0  0  0  0  0  0
   -3.1895   -2.2836    0.0000 C   0  0  0  0  0  0  0  0  0  0  0  0
   -2.3645   -2.2836    0.0000 C   0  0  0  0  0  0  0  0  0  0  0  0
   -1.9520   -1.5691    0.0000 C   0  0  0  0  0  0  0  0  0  0  0  0
   -2.3645   -0.8546    0.0000 O   0  0  0  0  0  0  0  0  0  0  0  0
   -1.1270   -1.5691    0.0000 C   0  0  0  0  0  0  0  0  0  0  0  0
   -0.7145   -0.8546    0.0000 C   0  0  0  0  0  0  0  0  0  0  0  0
   -1.1270   -0.1401    0.0000 C   0  0  0  0  0  0  0  0  0  0  0  0
   -1.9520   -0.1401    0.0000 C   0  0  0  0  0  0  0  0  0  0  0  0
   -2.3645    0.5743    0.0000 C   0  0  0  0  0  0  0  0  0  0  0  0
   -1.9520    1.2888    0.0000 C   0  0  0  0  0  0  0  0  0  0  0  0
   -1.1270    1.2888    0.0000 C   0  0  0  0  0  0  0  0  0  0  0  0
   -0.7145    0.5743    0.0000 C   0  0  0  0  0  0  0  0  0  0  0  0
    1.7605   -3.7125    0.0000 C   0  0  0  0  0  0  0  0  0  0  0  0
    1.3480   -2.9980    0.0000 C   0  0  0  0  0  0  0  0  0  0  0  0
    2.5855   -3.7125    0.0000 C   0  0  0  0  0  0  0  0  0  0  0  0
  1  2  1  0  0  0  0
  2  3  1  0  0  0  0
  2  4  1  0  0  0  0
  4  5  1  0  0  0  0
  4 26  1  0  0  0  0
  5  6  1  0  0  0  0
  6  7  1  0  0  0  0
  6  8  1  0  0  0  0
  8  9  1  0  0  0  0
  9 10  1  0  0  0  0
 10 11  2  0  0  0  0
 10 15  1  0  0  0  0
 11 12  1  0  0  0  0
 12 13  2  0  0  0  0
 13 14  1  0  0  0  0
 14 15  2  0  0  0  0
 15 16  1  0  0  0  0
 16 17  2  0  0  0  0
 16 18  1  0  0  0  0
 18 19  1  0  0  0  0
 19 20  1  0  0  0  0
 20 21  2  0  0  0  0
 20 25  1  0  0  0  0
 21 22  1  0  0  0  0
 22 23  2  0  0  0  0
 23 24  1  0  0  0  0
 24 25  2  0  0  0  0
 26 27  1  0  0  0  0
 26 28  1  0  0  0  0
M  END
$$$$

 OpenBabel12191814062D

 28 29  0  0  0  0  0  0  0  0999 V2000
    2.5855   -5.1414    0.0000 C   0  0  0  0  0  0  0  0  0  0  0  0
    1.7605   -5.1414    0.0000 C   0  0  0  0  0  0  0  0  0  0  0  0
    1.3480   -5.8559    0.0000 C   0  0  0  0  0  0  0  0  0  0  0  0
    1.3480   -4.4270    0.0000 N   0  0  0  0  0  0  0  0  0  0  0  0
    0.5230   -4.4270    0.0000 C   0  0  0  0  0  0  0  0  0  0  0  0
    0.1105   -3.7125    0.0000 C   0  0  3  0  0  0  0  0  0  0  0  0
    0.5230   -2.9980    0.0000 O   0  0  0  0  0  0  0  0  0  0  0  0
   -0.7145   -3.7125    0.0000 C   0  0  0  0  0  0  0  0  0  0  0  0
   -1.1270   -2.9980    0.0000 O   0  0  0  0  0  0  0  0  0  0  0  0
   -1.9520   -2.9980    0.0000 C   0  0  0  0  0  0  0  0  0  0  0  0
   -2.3645   -3.7125    0.0000 C   0  0  0  0  0  0  0  0  0  0  0  0
   -3.1895   -3.7125    0.0000 C   0  0  0  0  0  0  0  0  0  0  0  0
   -3.6020   -2.9980    0.0000 C   0  0  0  0  0  0  0  0  0  0  0  0
   -3.1895   -2.2836    0.0000 C   0  0  0  0  0  0  0  0  0  0  0  0
   -2.3645   -2.2836    0.0000 C   0  0  0  0  0  0  0  0  0  0  0  0
   -1.9520   -1.5691    0.0000 C   0  0  3  0  0  0  0  0  0  0  0  0
   -2.3645   -0.8546    0.0000 O   0  0  0  0  0  0  0  0  0  0  0  0
   -1.1270   -1.5691    0.0000 C   0  0  0  0  0  0  0  0  0  0  0  0
   -0.7145   -0.8546    0.0000 C   0  0  0  0  0  0  0  0  0  0  0  0
   -1.1270   -0.1401    0.0000 C   0  0  0  0  0  0  0  0  0  0  0  0
   -1.9520   -0.1401    0.0000 C   0  0  0  0  0  0  0  0  0  0  0  0
   -2.3645    0.5743    0.0000 C   0  0  0  0  0  0  0  0  0  0  0  0
   -1.9520    1.2888    0.0000 C   0  0  0  0  0  0  0  0  0  0  0  0
   -1.1270    1.2888    0.0000 C   0  0  0  0  0  0  0  0  0  0  0  0
   -0.7145    0.5743    0.0000 C   0  0  0  0  0  0  0  0  0  0  0  0
    1.7605   -3.7125    0.0000 C   0  0  0  0  0  0  0  0  0  0  0  0
    1.3480   -2.9980    0.0000 C   0  0  0  0  0  0  0  0  0  0  0  0
    2.5855   -3.7125    0.0000 C   0  0  0  0  0  0  0  0  0  0  0  0
  1  2  1  0  0  0  0
  2  3  1  0  0  0  0
  2  4  1  0  0  0  0
  4  5  1  0  0  0  0
  4 26  1  0  0  0  0
  5  6  1  0  0  0  0
  6  7  1  0  0  0  0
  6  8  1  0  0  0  0
  8  9  1  0  0  0  0
  9 10  1  0  0  0  0
 10 11  2  0  0  0  0
 10 15  1  0  0  0  0
 11 12  1  0  0  0  0
 12 13  2  0  0  0  0
 13 14  1  0  0  0  0
 14 15  2  0  0  0  0
 15 16  1  0  0  0  0
 16 17  1  0  0  0  0
 16 18  1  0  0  0  0
 18 19  1  0  0  0  0
 19 20  1  0  0  0  0
 20 21  2  0  0  0  0
 20 25  1  0  0  0  0
 21 22  1  0  0  0  0
 22 23  2  0  0  0  0
 23 24  1  0  0  0  0
 24 25  2  0  0  0  0
 26 27  1  0  0  0  0
 26 28  1  0  0  0  0
M  END
$$$$

 OpenBabel12191814062D

 26 28  0  0  0  0  0  0  0  0999 V2000
   -1.4289   -0.0000    0.0000 C   0  0  0  0  0  0  0  0  0  0  0  0
   -0.7145   -0.4125    0.0000 C   0  0  0  0  0  0  0  0  0  0  0  0
    0.0000   -0.0000    0.0000 C   0  0  0  0  0  0  0  0  0  0  0  0
   -0.7145   -1.2375    0.0000 N   0  0  0  0  0  0  0  0  0  0  0  0
    0.0000   -1.6500    0.0000 C   0  0  0  0  0  0  0  0  0  0  0  0
    0.0000   -2.4750    0.0000 C   0  0  0  0  0  0  0  0  0  0  0  0
   -0.7145   -2.8875    0.0000 C   0  0  0  0  0  0  0  0  0  0  0  0
   -1.4289   -2.4750    0.0000 C   0  0  0  0  0  0  0  0  0  0  0  0
   -1.4289   -1.6500    0.0000 C   0  0  0  0  0  0  0  0  0  0  0  0
   -0.7145   -3.7125    0.0000 N   0  0  0  0  0  0  0  0  0  0  0  0
   -1.4289   -4.1250    0.0000 C   0  0  0  0  0  0  0  0  0  0  0  0
   -2.1434   -3.7125    0.0000 O   0  0  0  0  0  0  0  0  0  0  0  0
   -1.4289   -4.9500    0.0000 C   0  0  0  0  0  0  0  0  0  0  0  0
   -2.1434   -5.3625    0.0000 C   0  0  0  0  0  0  0  0  0  0  0  0
   -2.1434   -6.1875    0.0000 C   0  0  0  0  0  0  0  0  0  0  0  0
   -2.8579   -6.6000    0.0000 C   0  0  0  0  0  0  0  0  0  0  0  0
   -3.5724   -6.1875    0.0000 C   0  0  0  0  0  0  0  0  0  0  0  0
   -3.5724   -5.3625    0.0000 C   0  0  0  0  0  0  0  0  0  0  0  0
   -2.8579   -4.9500    0.0000 C   0  0  0  0  0  0  0  0  0  0  0  0
   -0.0000   -4.1250    0.0000 C   0  0  0  0  0  0  0  0  0  0  0  0
    0.7145   -3.7125    0.0000 C   0  0  0  0  0  0  0  0  0  0  0  0
    1.4289   -4.1250    0.0000 C   0  0  0  0  0  0  0  0  0  0  0  0
    1.4289   -4.9500    0.0000 C   0  0  0  0  0  0  0  0  0  0  0  0
    2.1434   -5.3625    0.0000 Cl  0  0  0  0  0  0  0  0  0  0  0  0
    0.7145   -5.3625    0.0000 C   0  0  0  0  0  0  0  0  0  0  0  0
   -0.0000   -4.9500    0.0000 C   0  0  0  0  0  0  0  0  0  0  0  0
  1  2  1  0  0  0  0
  2  3  1  0  0  0  0
  2  4  1  0  0  0  0
  4  5  1  0  0  0  0
  4  9  1  0  0  0  0
  5  6  1  0  0  0  0
  6  7  1  0  0  0  0
  7  8  1  0  0  0  0
  7 10  1  0  0  0  0
  8  9  1  0  0  0  0
 10 11  1  0  0  0  0
 10 20  1  0  0  0  0
 11 12  2  0  0  0  0
 11 13  1  0  0  0  0
 13 14  1  0  0  0  0
 14 15  2  0  0  0  0
 14 19  1  0  0  0  0
 15 16  1  0  0  0  0
 16 17  2  0  0  0  0
 17 18  1  0  0  0  0
 18 19  2  0  0  0  0
 20 21  2  0  0  0  0
 20 26  1  0  0  0  0
 21 22  1  0  0  0  0
 22 23  2  0  0  0  0
 23 24  1  0  0  0  0
 23 25  1  0  0  0  0
 25 26  2  0  0  0  0
M  END
$$$$

 OpenBabel12191814062D

 36 40  0  0  0  0  0  0  0  0999 V2000
    5.9609   -8.3337    0.0000 C   0  0  0  0  0  0  0  0  0  0  0  0
    5.1404   -8.4200    0.0000 C   0  0  0  0  0  0  0  0  0  0  0  0
    4.8048   -9.1736    0.0000 C   0  0  0  0  0  0  0  0  0  0  0  0
    4.6555   -7.7525    0.0000 N   0  0  0  0  0  0  0  0  0  0  0  0
    3.8350   -7.8388    0.0000 C   0  0  0  0  0  0  0  0  0  0  0  0
    3.3501   -7.1713    0.0000 C   0  0  0  0  0  0  0  0  0  0  0  0
    3.6856   -6.4177    0.0000 N   0  0  0  0  0  0  0  0  0  0  0  0
    4.5061   -6.3314    0.0000 C   0  0  0  0  0  0  0  0  0  0  0  0
    4.9910   -6.9989    0.0000 C   0  0  0  0  0  0  0  0  0  0  0  0
    3.2007   -5.7502    0.0000 C   0  0  0  0  0  0  0  0  0  0  0  0
    2.3802   -5.8365    0.0000 C   0  0  0  0  0  0  0  0  0  0  0  0
    1.8953   -5.1690    0.0000 C   0  0  0  0  0  0  0  0  0  0  0  0
    2.2308   -4.4153    0.0000 C   0  0  0  0  0  0  0  0  0  0  0  0
    1.7459   -3.7479    0.0000 O   0  0  0  0  0  0  0  0  0  0  0  0
    2.0815   -2.9942    0.0000 C   0  0  0  0  0  0  0  0  0  0  0  0
    1.5966   -2.3268    0.0000 C   0  0  3  0  0  0  0  0  0  0  0  0
    0.7716   -2.3268    0.0000 C   0  0  0  0  0  0  0  0  0  0  0  0
    0.5166   -1.5422    0.0000 O   0  0  0  0  0  0  0  0  0  0  0  0
    1.1841   -1.0572    0.0000 C   0  0  3  0  0  0  0  0  0  0  0  0
    0.6320   -0.4441    0.0000 C   0  0  0  0  0  0  0  0  0  0  0  0
   -0.1749   -0.6157    0.0000 N   0  0  0  0  0  0  0  0  0  0  0  0
   -0.7880   -0.0636    0.0000 C   0  0  0  0  0  0  0  0  0  0  0  0
   -1.5025   -0.4761    0.0000 N   0  0  0  0  0  0  0  0  0  0  0  0
   -1.3310   -1.2831    0.0000 C   0  0  0  0  0  0  0  0  0  0  0  0
   -0.5105   -1.3694    0.0000 N   0  0  0  0  0  0  0  0  0  0  0  0
    1.8515   -1.5422    0.0000 O   0  0  0  0  0  0  0  0  0  0  0  0
    1.7361   -0.4441    0.0000 C   0  0  0  0  0  0  0  0  0  0  0  0
    1.4812    0.3405    0.0000 C   0  0  0  0  0  0  0  0  0  0  0  0
    2.0332    0.9536    0.0000 C   0  0  0  0  0  0  0  0  0  0  0  0
    2.8402    0.7820    0.0000 C   0  0  0  0  0  0  0  0  0  0  0  0
    3.3922    1.3951    0.0000 Cl  0  0  0  0  0  0  0  0  0  0  0  0
    3.0951   -0.0026    0.0000 C   0  0  0  0  0  0  0  0  0  0  0  0
    2.5431   -0.6157    0.0000 C   0  0  0  0  0  0  0  0  0  0  0  0
    2.7980   -1.4003    0.0000 Cl  0  0  0  0  0  0  0  0  0  0  0  0
    3.0513   -4.3291    0.0000 C   0  0  0  0  0  0  0  0  0  0  0  0
    3.5362   -4.9965    0.0000 C   0  0  0  0  0  0  0  0  0  0  0  0
  1  2  1  0  0  0  0
  2  3  1  0  0  0  0
  2  4  1  0  0  0  0
  4  5  1  0  0  0  0
  4  9  1  0  0  0  0
  5  6  1  0  0  0  0
  6  7  1  0  0  0  0
  7  8  1  0  0  0  0
  7 10  1  0  0  0  0
  8  9  1  0  0  0  0
 10 11  2  0  0  0  0
 10 36  1  0  0  0  0
 11 12  1  0  0  0  0
 12 13  2  0  0  0  0
 13 14  1  0  0  0  0
 13 35  1  0  0  0  0
 14 15  1  0  0  0  0
 15 16  1  0  0  0  0
 16 17  1  0  0  0  0
 16 26  1  0  0  0  0
 17 18  1  0  0  0  0
 18 19  1  0  0  0  0
 19 20  1  0  0  0  0
 19 26  1  0  0  0  0
 19 27  1  0  0  0  0
 20 21  1  0  0  0  0
 21 22  1  0  0  0  0
 21 25  1  0  0  0  0
 22 23  2  0  0  0  0
 23 24  1  0  0  0  0
 24 25  2  0  0  0  0
 27 28  2  0  0  0  0
 27 33  1  0  0  0  0
 28 29  1  0  0  0  0
 29 30  2  0  0  0  0
 30 31  1  0  0  0  0
 30 32  1  0  0  0  0
 32 33  2  0  0  0  0
 33 34  1  0  0  0  0
 35 36  2  0  0  0  0
M  END
$$$$

 OpenBabel12191814062D

 33 36  0  0  0  0  0  0  0  0999 V2000
   -4.2962    3.5889    0.0000 C   0  0  0  0  0  0  0  0  0  0  0  0
   -3.8837    2.8744    0.0000 C   0  0  0  0  0  0  0  0  0  0  0  0
   -4.2962    2.1599    0.0000 C   0  0  0  0  0  0  0  0  0  0  0  0
   -3.0587    2.8744    0.0000 N   0  0  0  0  0  0  0  0  0  0  0  0
   -2.6462    2.1599    0.0000 C   0  0  0  0  0  0  0  0  0  0  0  0
   -3.0587    1.4455    0.0000 O   0  0  0  0  0  0  0  0  0  0  0  0
   -1.8212    2.1599    0.0000 C   0  0  0  0  0  0  0  0  0  0  0  0
   -1.4087    1.4455    0.0000 N   0  0  0  0  0  0  0  0  0  0  0  0
   -0.5837    1.4455    0.0000 C   0  0  0  0  0  0  0  0  0  0  0  0
   -0.1712    0.7310    0.0000 C   0  0  0  0  0  0  0  0  0  0  0  0
   -0.5837    0.0165    0.0000 N   0  0  0  0  0  0  0  0  0  0  0  0
   -0.1712   -0.6979    0.0000 C   0  0  0  0  0  0  0  0  0  0  0  0
    0.6538   -0.6979    0.0000 C   0  0  0  0  0  0  0  0  0  0  0  0
    1.1387   -0.0305    0.0000 N   0  0  0  0  0  0  0  0  0  0  0  0
    1.9233   -0.2854    0.0000 C   0  0  0  0  0  0  0  0  0  0  0  0
    2.6378    0.1271    0.0000 C   0  0  0  0  0  0  0  0  0  0  0  0
    3.3523   -0.2854    0.0000 C   0  0  0  0  0  0  0  0  0  0  0  0
    3.3523   -1.1104    0.0000 C   0  0  0  0  0  0  0  0  0  0  0  0
    2.6378   -1.5229    0.0000 C   0  0  0  0  0  0  0  0  0  0  0  0
    1.9233   -1.1104    0.0000 C   0  0  0  0  0  0  0  0  0  0  0  0
    1.1387   -1.3654    0.0000 N   0  0  0  0  0  0  0  0  0  0  0  0
    0.8838   -2.1500    0.0000 C   0  0  0  0  0  0  0  0  0  0  0  0
    0.0768   -2.3215    0.0000 C   0  0  0  0  0  0  0  0  0  0  0  0
   -0.1781   -3.1062    0.0000 C   0  0  0  0  0  0  0  0  0  0  0  0
   -0.9851   -3.2777    0.0000 O   0  0  0  0  0  0  0  0  0  0  0  0
    0.3739   -3.7192    0.0000 C   0  0  0  0  0  0  0  0  0  0  0  0
    1.1809   -3.5477    0.0000 C   0  0  0  0  0  0  0  0  0  0  0  0
    1.7329   -4.1608    0.0000 C   0  0  0  0  0  0  0  0  0  0  0  0
    1.4780   -4.9454    0.0000 C   0  0  0  0  0  0  0  0  0  0  0  0
    0.6710   -5.1170    0.0000 C   0  0  0  0  0  0  0  0  0  0  0  0
    0.1190   -4.5039    0.0000 C   0  0  0  0  0  0  0  0  0  0  0  0
   -1.4087    0.0165    0.0000 C   0  0  0  0  0  0  0  0  0  0  0  0
   -1.8212    0.7310    0.0000 C   0  0  0  0  0  0  0  0  0  0  0  0
  1  2  1  0  0  0  0
  2  3  1  0  0  0  0
  2  4  1  0  0  0  0
  4  5  1  0  0  0  0
  5  6  2  0  0  0  0
  5  7  1  0  0  0  0
  7  8  1  0  0  0  0
  8  9  1  0  0  0  0
  8 33  1  0  0  0  0
  9 10  1  0  0  0  0
 10 11  1  0  0  0  0
 11 12  1  0  0  0  0
 11 32  1  0  0  0  0
 12 13  1  0  0  0  0
 13 14  2  0  0  0  0
 13 21  1  0  0  0  0
 14 15  1  0  0  0  0
 15 16  2  0  0  0  0
 15 20  1  0  0  0  0
 16 17  1  0  0  0  0
 17 18  2  0  0  0  0
 18 19  1  0  0  0  0
 19 20  2  0  0  0  0
 20 21  1  0  0  0  0
 21 22  1  0  0  0  0
 22 23  1  0  0  0  0
 23 24  1  0  0  0  0
 24 25  2  0  0  0  0
 24 26  1  0  0  0  0
 26 27  2  0  0  0  0
 26 31  1  0  0  0  0
 27 28  1  0  0  0  0
 28 29  2  0  0  0  0
 29 30  1  0  0  0  0
 30 31  2  0  0  0  0
 32 33  1  0  0  0  0
M  END
$$$$

 OpenBabel12191814062D

 32 35  0  0  0  0  0  0  0  0999 V2000
   -1.4087   -7.1282    0.0000 C   0  0  0  0  0  0  0  0  0  0  0  0
   -1.8212   -6.4137    0.0000 C   0  0  0  0  0  0  0  0  0  0  0  0
   -2.6462   -6.4137    0.0000 C   0  0  0  0  0  0  0  0  0  0  0  0
   -1.4087   -5.6992    0.0000 N   0  0  0  0  0  0  0  0  0  0  0  0
   -1.8212   -4.9848    0.0000 C   0  0  0  0  0  0  0  0  0  0  0  0
   -2.6462   -4.9848    0.0000 C   0  0  0  0  0  0  0  0  0  0  0  0
   -3.0587   -4.2703    0.0000 C   0  0  0  0  0  0  0  0  0  0  0  0
   -2.6462   -3.5558    0.0000 N   0  0  0  0  0  0  0  0  0  0  0  0
   -1.8212   -3.5558    0.0000 C   0  0  0  0  0  0  0  0  0  0  0  0
   -1.4087   -4.2703    0.0000 C   0  0  0  0  0  0  0  0  0  0  0  0
   -1.4087   -2.8414    0.0000 N   0  0  0  0  0  0  0  0  0  0  0  0
   -1.8212   -2.1269    0.0000 C   0  0  0  0  0  0  0  0  0  0  0  0
   -1.4087   -1.4124    0.0000 C   0  0  0  0  0  0  0  0  0  0  0  0
   -0.5837   -1.4124    0.0000 N   0  0  0  0  0  0  0  0  0  0  0  0
   -0.1712   -2.1269    0.0000 C   0  0  0  0  0  0  0  0  0  0  0  0
   -0.5837   -2.8414    0.0000 C   0  0  0  0  0  0  0  0  0  0  0  0
   -0.1712   -0.6979    0.0000 C   0  0  0  0  0  0  0  0  0  0  0  0
   -0.5837    0.0165    0.0000 O   0  0  0  0  0  0  0  0  0  0  0  0
    0.6538   -0.6979    0.0000 C   0  0  0  0  0  0  0  0  0  0  0  0
    1.1387   -0.0305    0.0000 C   0  0  0  0  0  0  0  0  0  0  0  0
    1.9233   -0.2854    0.0000 C   0  0  0  0  0  0  0  0  0  0  0  0
    2.6378    0.1271    0.0000 C   0  0  0  0  0  0  0  0  0  0  0  0
    3.3523   -0.2854    0.0000 C   0  0  0  0  0  0  0  0  0  0  0  0
    4.0668    0.1271    0.0000 N   0  0  0  0  0  0  0  0  0  0  0  0
    4.0668    0.9521    0.0000 S   0  0  0  0  0  0  0  0  0  0  0  0
    4.0668    1.7771    0.0000 C   0  0  0  0  0  0  0  0  0  0  0  0
    4.8918    0.9521    0.0000 O   0  0  0  0  0  0  0  0  0  0  0  0
    3.2418    0.9521    0.0000 O   0  0  0  0  0  0  0  0  0  0  0  0
    3.3523   -1.1104    0.0000 C   0  0  0  0  0  0  0  0  0  0  0  0
    2.6378   -1.5229    0.0000 C   0  0  0  0  0  0  0  0  0  0  0  0
    1.9233   -1.1104    0.0000 C   0  0  0  0  0  0  0  0  0  0  0  0
    1.1387   -1.3654    0.0000 N   0  0  0  0  0  0  0  0  0  0  0  0
  1  2  1  0  0  0  0
  2  3  1  0  0  0  0
  2  4  1  0  0  0  0
  4  5  1  0  0  0  0
  5  6  2  0  0  0  0
  5 10  1  0  0  0  0
  6  7  1  0  0  0  0
  7  8  2  0  0  0  0
  8  9  1  0  0  0  0
  9 10  2  0  0  0  0
  9 11  1  0  0  0  0
 11 12  1  0  0  0  0
 11 16  1  0  0  0  0
 12 13  1  0  0  0  0
 13 14  1  0  0  0  0
 14 15  1  0  0  0  0
 14 17  1  0  0  0  0
 15 16  1  0  0  0  0
 17 18  2  0  0  0  0
 17 19  1  0  0  0  0
 19 20  2  0  0  0  0
 19 32  1  0  0  0  0
 20 21  1  0  0  0  0
 21 22  2  0  0  0  0
 21 31  1  0  0  0  0
 22 23  1  0  0  0  0
 23 24  1  0  0  0  0
 23 29  2  0  0  0  0
 24 25  1  0  0  0  0
 25 26  1  0  0  0  0
 25 27  2  0  0  0  0
 25 28  2  0  0  0  0
 29 30  1  0  0  0  0
 30 31  2  0  0  0  0
 31 32  1  0  0  0  0
M  END
$$$$

 OpenBabel12191814062D

 21 22  0  0  0  0  0  0  0  0999 V2000
   -3.5724   -1.2375    0.0000 C   0  0  0  0  0  0  0  0  0  0  0  0
   -2.8579   -1.6500    0.0000 C   0  0  0  0  0  0  0  0  0  0  0  0
   -2.8579   -2.4750    0.0000 C   0  0  0  0  0  0  0  0  0  0  0  0
   -2.1434   -1.2375    0.0000 N   0  0  0  0  0  0  0  0  0  0  0  0
   -1.4289   -1.6500    0.0000 C   0  0  0  0  0  0  0  0  0  0  0  0
   -0.7145   -1.2375    0.0000 C   0  0  3  0  0  0  0  0  0  0  0  0
   -0.7145   -0.4125    0.0000 O   0  0  0  0  0  0  0  0  0  0  0  0
    0.0000   -1.6500    0.0000 C   0  0  0  0  0  0  0  0  0  0  0  0
    0.7145   -1.2375    0.0000 C   0  0  0  0  0  0  0  0  0  0  0  0
    1.4289   -1.6500    0.0000 C   0  0  0  0  0  0  0  0  0  0  0  0
    2.1434   -1.2375    0.0000 C   0  0  0  0  0  0  0  0  0  0  0  0
    2.8579   -1.6500    0.0000 C   0  0  0  0  0  0  0  0  0  0  0  0
    2.8579   -2.4750    0.0000 C   0  0  0  0  0  0  0  0  0  0  0  0
    2.1434   -2.8875    0.0000 C   0  0  0  0  0  0  0  0  0  0  0  0
    1.4289   -2.4750    0.0000 C   0  0  0  0  0  0  0  0  0  0  0  0
    0.7145   -0.4125    0.0000 C   0  0  0  0  0  0  0  0  0  0  0  0
    0.0000   -0.0000    0.0000 C   0  0  0  0  0  0  0  0  0  0  0  0
    0.0000    0.8250    0.0000 C   0  0  0  0  0  0  0  0  0  0  0  0
    0.7145    1.2375    0.0000 C   0  0  0  0  0  0  0  0  0  0  0  0
    1.4289    0.8250    0.0000 C   0  0  0  0  0  0  0  0  0  0  0  0
    1.4289    0.0000    0.0000 C   0  0  0  0  0  0  0  0  0  0  0  0
  1  2  1  0  0  0  0
  2  3  1  0  0  0  0
  2  4  1  0  0  0  0
  4  5  1  0  0  0  0
  5  6  1  0  0  0  0
  6  7  1  0  0  0  0
  6  8  1  0  0  0  0
  8  9  1  0  0  0  0
  9 10  1  0  0  0  0
  9 16  1  0  0  0  0
 10 11  2  0  0  0  0
 10 15  1  0  0  0  0
 11 12  1  0  0  0  0
 12 13  2  0  0  0  0
 13 14  1  0  0  0  0
 14 15  2  0  0  0  0
 16 17  2  0  0  0  0
 16 21  1  0  0  0  0
 17 18  1  0  0  0  0
 18 19  2  0  0  0  0
 19 20  1  0  0  0  0
 20 21  2  0  0  0  0
M  END
$$$$

 OpenBabel12191814062D

 31 33  0  0  0  0  0  0  0  0999 V2000
    2.3352   -4.5980    0.0000 C   0  0  0  0  0  0  0  0  0  0  0  0
    3.0497   -4.1855    0.0000 C   0  0  0  0  0  0  0  0  0  0  0  0
    3.0497   -3.3605    0.0000 C   0  0  0  0  0  0  0  0  0  0  0  0
    3.7641   -4.5980    0.0000 N   0  0  0  0  0  0  0  0  0  0  0  0
    4.4786   -4.1855    0.0000 C   0  0  0  0  0  0  0  0  0  0  0  0
    5.1931   -4.5980    0.0000 C   0  0  3  0  0  0  0  0  0  0  0  0
    5.1931   -5.4230    0.0000 O   0  0  0  0  0  0  0  0  0  0  0  0
    5.9076   -4.1855    0.0000 C   0  0  0  0  0  0  0  0  0  0  0  0
    5.9076   -3.3605    0.0000 N   0  0  0  0  0  0  0  0  0  0  0  0
    5.2401   -2.8756    0.0000 C   0  0  0  0  0  0  0  0  0  0  0  0
    4.4555   -3.1305    0.0000 C   0  0  0  0  0  0  0  0  0  0  0  0
    5.4951   -2.0909    0.0000 C   0  0  0  0  0  0  0  0  0  0  0  0
    5.0101   -1.4235    0.0000 C   0  0  0  0  0  0  0  0  0  0  0  0
    4.1896   -1.5097    0.0000 O   0  0  0  0  0  0  0  0  0  0  0  0
    5.3457   -0.6698    0.0000 C   0  0  0  0  0  0  0  0  0  0  0  0
    6.1662   -0.5836    0.0000 C   0  0  0  0  0  0  0  0  0  0  0  0
    6.5017    0.1701    0.0000 C   0  0  0  0  0  0  0  0  0  0  0  0
    6.0168    0.8375    0.0000 C   0  0  0  0  0  0  0  0  0  0  0  0
    6.3524    1.5912    0.0000 C   0  0  0  0  0  0  0  0  0  0  0  0
    7.1728    1.6774    0.0000 C   0  0  0  0  0  0  0  0  0  0  0  0
    7.6578    1.0100    0.0000 C   0  0  0  0  0  0  0  0  0  0  0  0
    7.3222    0.2563    0.0000 C   0  0  0  0  0  0  0  0  0  0  0  0
    6.3201   -2.0909    0.0000 C   0  0  0  0  0  0  0  0  0  0  0  0
    6.8050   -1.4235    0.0000 O   0  0  0  0  0  0  0  0  0  0  0  0
    6.5750   -2.8756    0.0000 N   0  0  0  0  0  0  0  0  0  0  0  0
    7.3596   -3.1305    0.0000 C   0  0  0  0  0  0  0  0  0  0  0  0
    7.9727   -2.5785    0.0000 C   0  0  0  0  0  0  0  0  0  0  0  0
    8.7573   -2.8334    0.0000 C   0  0  0  0  0  0  0  0  0  0  0  0
    8.9289   -3.6404    0.0000 C   0  0  0  0  0  0  0  0  0  0  0  0
    8.3158   -4.1924    0.0000 C   0  0  0  0  0  0  0  0  0  0  0  0
    7.5311   -3.9375    0.0000 C   0  0  0  0  0  0  0  0  0  0  0  0
  1  2  1  0  0  0  0
  2  3  1  0  0  0  0
  2  4  1  0  0  0  0
  4  5  1  0  0  0  0
  5  6  1  0  0  0  0
  6  7  1  0  0  0  0
  6  8  1  0  0  0  0
  8  9  1  0  0  0  0
  9 10  1  0  0  0  0
  9 25  1  0  0  0  0
 10 11  1  0  0  0  0
 10 12  2  0  0  0  0
 12 13  1  0  0  0  0
 12 23  1  0  0  0  0
 13 14  2  0  0  0  0
 13 15  1  0  0  0  0
 15 16  1  0  0  0  0
 16 17  1  0  0  0  0
 17 18  2  0  0  0  0
 17 22  1  0  0  0  0
 18 19  1  0  0  0  0
 19 20  2  0  0  0  0
 20 21  1  0  0  0  0
 21 22  2  0  0  0  0
 23 24  2  0  0  0  0
 23 25  1  0  0  0  0
 25 26  1  0  0  0  0
 26 27  2  0  0  0  0
 26 31  1  0  0  0  0
 27 28  1  0  0  0  0
 28 29  2  0  0  0  0
 29 30  1  0  0  0  0
 30 31  2  0  0  0  0
M  END
$$$$

 OpenBabel12191814062D

 32 34  0  0  0  0  0  0  0  0999 V2000
    2.8579   -4.1250    0.0000 C   0  0  0  0  0  0  0  0  0  0  0  0
    3.5724   -4.5375    0.0000 C   0  0  0  0  0  0  0  0  0  0  0  0
    3.5724   -5.3625    0.0000 C   0  0  0  0  0  0  0  0  0  0  0  0
    4.2868   -4.1250    0.0000 N   0  0  0  0  0  0  0  0  0  0  0  0
    5.0013   -4.5375    0.0000 C   0  0  0  0  0  0  0  0  0  0  0  0
    5.7158   -4.1250    0.0000 C   0  0  3  0  0  0  0  0  0  0  0  0
    5.7158   -3.3000    0.0000 O   0  0  0  0  0  0  0  0  0  0  0  0
    6.4302   -4.5375    0.0000 C   0  0  0  0  0  0  0  0  0  0  0  0
    7.1447   -4.1250    0.0000 O   0  0  0  0  0  0  0  0  0  0  0  0
    7.8592   -4.5375    0.0000 C   0  0  0  0  0  0  0  0  0  0  0  0
    8.5737   -4.1250    0.0000 C   0  0  0  0  0  0  0  0  0  0  0  0
    9.2881   -4.5375    0.0000 C   0  0  0  0  0  0  0  0  0  0  0  0
    9.2881   -5.3625    0.0000 C   0  0  0  0  0  0  0  0  0  0  0  0
   10.0026   -5.7750    0.0000 O   0  0  0  0  0  0  0  0  0  0  0  0
   10.7171   -5.3625    0.0000 C   0  0  0  0  0  0  0  0  0  0  0  0
   10.7171   -4.5375    0.0000 C   0  0  0  0  0  0  0  0  0  0  0  0
   11.4315   -4.1250    0.0000 C   0  0  0  0  0  0  0  0  0  0  0  0
   12.1460   -4.5375    0.0000 C   0  0  0  0  0  0  0  0  0  0  0  0
   12.1460   -5.3625    0.0000 C   0  0  0  0  0  0  0  0  0  0  0  0
   11.4315   -5.7750    0.0000 C   0  0  0  0  0  0  0  0  0  0  0  0
    8.5737   -5.7750    0.0000 C   0  0  0  0  0  0  0  0  0  0  0  0
    7.8592   -5.3625    0.0000 C   0  0  0  0  0  0  0  0  0  0  0  0
    7.1447   -5.7750    0.0000 C   0  0  0  0  0  0  0  0  0  0  0  0
    6.4302   -5.3625    0.0000 O   0  0  0  0  0  0  0  0  0  0  0  0
    7.1447   -6.6000    0.0000 C   0  0  0  0  0  0  0  0  0  0  0  0
    7.8592   -7.0125    0.0000 C   0  0  0  0  0  0  0  0  0  0  0  0
    7.8592   -7.8375    0.0000 C   0  0  0  0  0  0  0  0  0  0  0  0
    8.5737   -8.2500    0.0000 C   0  0  0  0  0  0  0  0  0  0  0  0
    8.5737   -9.0750    0.0000 C   0  0  0  0  0  0  0  0  0  0  0  0
    7.8592   -9.4875    0.0000 C   0  0  0  0  0  0  0  0  0  0  0  0
    7.1447   -9.0750    0.0000 C   0  0  0  0  0  0  0  0  0  0  0  0
    7.1447   -8.2500    0.0000 C   0  0  0  0  0  0  0  0  0  0  0  0
  1  2  1  0  0  0  0
  2  3  1  0  0  0  0
  2  4  1  0  0  0  0
  4  5  1  0  0  0  0
  5  6  1  0  0  0  0
  6  7  1  0  0  0  0
  6  8  1  0  0  0  0
  8  9  1  0  0  0  0
  9 10  1  0  0  0  0
 10 11  2  0  0  0  0
 10 22  1  0  0  0  0
 11 12  1  0  0  0  0
 12 13  2  0  0  0  0
 13 14  1  0  0  0  0
 13 21  1  0  0  0  0
 14 15  1  0  0  0  0
 15 16  2  0  0  0  0
 15 20  1  0  0  0  0
 16 17  1  0  0  0  0
 17 18  2  0  0  0  0
 18 19  1  0  0  0  0
 19 20  2  0  0  0  0
 21 22  2  0  0  0  0
 22 23  1  0  0  0  0
 23 24  2  0  0  0  0
 23 25  1  0  0  0  0
 25 26  1  0  0  0  0
 26 27  1  0  0  0  0
 27 28  2  0  0  0  0
 27 32  1  0  0  0  0
 28 29  1  0  0  0  0
 29 30  2  0  0  0  0
 30 31  1  0  0  0  0
 31 32  2  0  0  0  0
M  END
$$$$

 OpenBabel12191814062D

 23 25  0  0  0  0  0  0  0  0999 V2000
    0.6900   -3.4491    0.0000 C   0  0  0  0  0  0  0  0  0  0  0  0
    1.4045   -3.0366    0.0000 C   0  0  0  0  0  0  0  0  0  0  0  0
    1.4045   -2.2116    0.0000 C   0  0  0  0  0  0  0  0  0  0  0  0
    2.1190   -3.4491    0.0000 N   0  0  0  0  0  0  0  0  0  0  0  0
    2.8334   -3.0366    0.0000 C   0  0  0  0  0  0  0  0  0  0  0  0
    3.5479   -3.4491    0.0000 C   0  0  0  0  0  0  0  0  0  0  0  0
    4.2624   -3.0366    0.0000 C   0  0  0  0  0  0  0  0  0  0  0  0
    4.3486   -2.2161    0.0000 O   0  0  0  0  0  0  0  0  0  0  0  0
    5.1556   -2.0446    0.0000 C   0  0  0  0  0  0  0  0  0  0  0  0
    5.5681   -1.3301    0.0000 C   0  0  0  0  0  0  0  0  0  0  0  0
    6.3931   -1.3301    0.0000 C   0  0  0  0  0  0  0  0  0  0  0  0
    6.8056   -2.0446    0.0000 C   0  0  0  0  0  0  0  0  0  0  0  0
    6.3931   -2.7591    0.0000 C   0  0  0  0  0  0  0  0  0  0  0  0
    5.5681   -2.7591    0.0000 C   0  0  0  0  0  0  0  0  0  0  0  0
    5.0161   -3.3722    0.0000 C   0  0  0  0  0  0  0  0  0  0  0  0
    5.1876   -4.1792    0.0000 C   0  0  0  0  0  0  0  0  0  0  0  0
    5.9722   -4.4341    0.0000 C   0  0  0  0  0  0  0  0  0  0  0  0
    6.1437   -5.2411    0.0000 C   0  0  0  0  0  0  0  0  0  0  0  0
    6.9284   -5.4960    0.0000 C   0  0  0  0  0  0  0  0  0  0  0  0
    7.0999   -6.3030    0.0000 C   0  0  0  0  0  0  0  0  0  0  0  0
    6.4868   -6.8550    0.0000 C   0  0  0  0  0  0  0  0  0  0  0  0
    5.7022   -6.6001    0.0000 C   0  0  0  0  0  0  0  0  0  0  0  0
    5.5306   -5.7931    0.0000 C   0  0  0  0  0  0  0  0  0  0  0  0
  1  2  1  0  0  0  0
  2  3  1  0  0  0  0
  2  4  1  0  0  0  0
  4  5  1  0  0  0  0
  5  6  1  0  0  0  0
  6  7  1  0  0  0  0
  7  8  1  0  0  0  0
  7 15  2  0  0  0  0
  8  9  1  0  0  0  0
  9 10  2  0  0  0  0
  9 14  1  0  0  0  0
 10 11  1  0  0  0  0
 11 12  2  0  0  0  0
 12 13  1  0  0  0  0
 13 14  2  0  0  0  0
 14 15  1  0  0  0  0
 15 16  1  0  0  0  0
 16 17  1  0  0  0  0
 17 18  1  0  0  0  0
 18 19  2  0  0  0  0
 18 23  1  0  0  0  0
 19 20  1  0  0  0  0
 20 21  2  0  0  0  0
 21 22  1  0  0  0  0
 22 23  2  0  0  0  0
M  END
$$$$

 OpenBabel12191814062D

 29 31  0  0  0  0  0  0  0  0999 V2000
   -3.6791    1.1759    0.0000 C   0  0  0  0  0  0  0  0  0  0  0  0
   -2.9646    0.7634    0.0000 C   0  0  0  0  0  0  0  0  0  0  0  0
   -2.9646   -0.0616    0.0000 C   0  0  0  0  0  0  0  0  0  0  0  0
   -2.2501    1.1759    0.0000 O   0  0  0  0  0  0  0  0  0  0  0  0
   -1.5356    0.7634    0.0000 C   0  0  0  0  0  0  0  0  0  0  0  0
   -1.5356   -0.0616    0.0000 O   0  0  0  0  0  0  0  0  0  0  0  0
   -0.8212    1.1759    0.0000 C   0  0  0  0  0  0  0  0  0  0  0  0
   -0.1067    0.7634    0.0000 C   0  0  0  0  0  0  0  0  0  0  0  0
    0.6078    1.1759    0.0000 C   0  0  0  0  0  0  0  0  0  0  0  0
    0.6078    2.0009    0.0000 C   0  0  0  0  0  0  0  0  0  0  0  0
    1.3222    2.4134    0.0000 C   0  0  0  0  0  0  0  0  0  0  0  0
    2.0367    2.0009    0.0000 C   0  0  0  0  0  0  0  0  0  0  0  0
    2.0367    1.1759    0.0000 C   0  0  0  0  0  0  0  0  0  0  0  0
    1.3222    0.7634    0.0000 N   0  0  0  0  0  0  0  0  0  0  0  0
    2.7512    0.7634    0.0000 C   0  0  0  0  0  0  0  0  0  0  0  0
    2.7512   -0.0616    0.0000 C   0  0  0  0  0  0  0  0  0  0  0  0
    3.4656   -0.4741    0.0000 C   0  0  0  0  0  0  0  0  0  0  0  0
    3.4656   -1.2991    0.0000 N   0  0  0  0  0  0  0  0  0  0  0  0
    4.1331   -1.7840    0.0000 C   0  0  0  0  0  0  0  0  0  0  0  0
    3.8781   -2.5687    0.0000 C   0  0  0  0  0  0  0  0  0  0  0  0
    3.0531   -2.5687    0.0000 C   0  0  0  0  0  0  0  0  0  0  0  0
    2.7982   -1.7840    0.0000 C   0  0  0  0  0  0  0  0  0  0  0  0
    3.4656    1.1759    0.0000 C   0  0  0  0  0  0  0  0  0  0  0  0
    3.4656    2.0009    0.0000 C   0  0  0  0  0  0  0  0  0  0  0  0
    4.1801    2.4134    0.0000 C   0  0  0  0  0  0  0  0  0  0  0  0
    4.8946    2.0009    0.0000 C   0  0  0  0  0  0  0  0  0  0  0  0
    5.6091    2.4134    0.0000 C   0  0  0  0  0  0  0  0  0  0  0  0
    4.8946    1.1759    0.0000 C   0  0  0  0  0  0  0  0  0  0  0  0
    4.1801    0.7634    0.0000 C   0  0  0  0  0  0  0  0  0  0  0  0
  1  2  1  0  0  0  0
  2  3  1  0  0  0  0
  2  4  1  0  0  0  0
  4  5  1  0  0  0  0
  5  6  2  0  0  0  0
  5  7  1  0  0  0  0
  7  8  2  0  0  0  0
  8  9  1  0  0  0  0
  9 10  2  0  0  0  0
  9 14  1  0  0  0  0
 10 11  1  0  0  0  0
 11 12  2  0  0  0  0
 12 13  1  0  0  0  0
 13 14  2  0  0  0  0
 13 15  1  0  0  0  0
 15 16  2  0  0  0  0
 15 23  1  0  0  0  0
 16 17  1  0  0  0  0
 17 18  1  0  0  0  0
 18 19  1  0  0  0  0
 18 22  1  0  0  0  0
 19 20  1  0  0  0  0
 20 21  1  0  0  0  0
 21 22  1  0  0  0  0
 23 24  2  0  0  0  0
 23 29  1  0  0  0  0
 24 25  1  0  0  0  0
 25 26  2  0  0  0  0
 26 27  1  0  0  0  0
 26 28  1  0  0  0  0
 28 29  2  0  0  0  0
M  END
$$$$

 OpenBabel12191814062D

 30 32  0  0  0  0  0  0  0  0999 V2000
    0.4125   -3.1895    0.0000 C   0  0  0  0  0  0  0  0  0  0  0  0
    0.0000   -2.4750    0.0000 C   0  0  0  0  0  0  0  0  0  0  0  0
   -0.8250   -2.4750    0.0000 C   0  0  0  0  0  0  0  0  0  0  0  0
    0.4125   -1.7605    0.0000 O   0  0  0  0  0  0  0  0  0  0  0  0
    1.2375   -1.7605    0.0000 C   0  0  3  0  0  0  0  0  0  0  0  0
    1.6500   -2.4750    0.0000 C   0  0  0  0  0  0  0  0  0  0  0  0
    2.4750   -2.4750    0.0000 C   0  0  0  0  0  0  0  0  0  0  0  0
    2.8875   -3.1895    0.0000 C   0  0  0  0  0  0  0  0  0  0  0  0
    3.7125   -3.1895    0.0000 C   0  0  0  0  0  0  0  0  0  0  0  0
    4.1250   -3.9039    0.0000 C   0  0  0  0  0  0  0  0  0  0  0  0
    3.7125   -4.6184    0.0000 C   0  0  0  0  0  0  0  0  0  0  0  0
    2.8875   -4.6184    0.0000 C   0  0  0  0  0  0  0  0  0  0  0  0
    2.4750   -3.9039    0.0000 C   0  0  0  0  0  0  0  0  0  0  0  0
    1.6500   -1.0461    0.0000 C   0  0  0  0  0  0  0  0  0  0  0  0
    2.4750   -1.0461    0.0000 C   0  0  0  0  0  0  0  0  0  0  0  0
    2.8875   -0.3316    0.0000 C   0  0  0  0  0  0  0  0  0  0  0  0
    2.4750    0.3829    0.0000 C   0  0  0  0  0  0  0  0  0  0  0  0
    1.6500    0.3829    0.0000 C   0  0  0  0  0  0  0  0  0  0  0  0
    1.2375   -0.3316    0.0000 C   0  0  0  0  0  0  0  0  0  0  0  0
    0.4125   -0.3316    0.0000 O   0  0  0  0  0  0  0  0  0  0  0  0
    0.0000   -1.0461    0.0000 C   0  0  0  0  0  0  0  0  0  0  0  0
   -0.8250   -1.0461    0.0000 C   0  0  3  0  0  0  0  0  0  0  0  0
   -1.2375   -0.3316    0.0000 O   0  0  0  0  0  0  0  0  0  0  0  0
   -1.2375   -1.7605    0.0000 C   0  0  0  0  0  0  0  0  0  0  0  0
   -2.0625   -1.7605    0.0000 N   0  0  0  0  0  0  0  0  0  0  0  0
   -2.4750   -2.4750    0.0000 C   0  0  0  0  0  0  0  0  0  0  0  0
   -3.3000   -2.4750    0.0000 C   0  0  0  0  0  0  0  0  0  0  0  0
   -3.7125   -1.7605    0.0000 C   0  0  0  0  0  0  0  0  0  0  0  0
   -3.3000   -1.0461    0.0000 C   0  0  0  0  0  0  0  0  0  0  0  0
   -2.4750   -1.0461    0.0000 C   0  0  0  0  0  0  0  0  0  0  0  0
  1  2  1  0  0  0  0
  2  3  1  0  0  0  0
  2  4  1  0  0  0  0
  4  5  1  0  0  0  0
  5  6  1  0  0  0  0
  5 14  1  0  0  0  0
  6  7  1  0  0  0  0
  7  8  1  0  0  0  0
  8  9  2  0  0  0  0
  8 13  1  0  0  0  0
  9 10  1  0  0  0  0
 10 11  2  0  0  0  0
 11 12  1  0  0  0  0
 12 13  2  0  0  0  0
 14 15  2  0  0  0  0
 14 19  1  0  0  0  0
 15 16  1  0  0  0  0
 16 17  2  0  0  0  0
 17 18  1  0  0  0  0
 18 19  2  0  0  0  0
 19 20  1  0  0  0  0
 20 21  1  0  0  0  0
 21 22  1  0  0  0  0
 22 23  1  0  0  0  0
 22 24  1  0  0  0  0
 24 25  1  0  0  0  0
 25 26  1  0  0  0  0
 25 30  1  0  0  0  0
 26 27  1  0  0  0  0
 27 28  1  0  0  0  0
 28 29  1  0  0  0  0
 29 30  1  0  0  0  0
M  END
$$$$

 OpenBabel12191814062D

 22 24  0  0  0  0  0  0  0  0999 V2000
    1.4358   -2.7631    0.0000 C   0  0  0  0  0  0  0  0  0  0  0  0
    0.8838   -2.1500    0.0000 C   0  0  3  0  0  0  0  0  0  0  0  0
    1.1387   -1.3654    0.0000 C   0  0  0  0  0  0  0  0  0  0  0  0
    0.6538   -0.6979    0.0000 C   0  0  0  0  0  0  0  0  0  0  0  0
   -0.1712   -0.6979    0.0000 C   0  0  0  0  0  0  0  0  0  0  0  0
   -0.5837    0.0165    0.0000 C   0  0  0  0  0  0  0  0  0  0  0  0
   -1.4087    0.0165    0.0000 N   0  0  0  0  0  0  0  0  0  0  0  0
   -1.8212    0.7310    0.0000 C   0  0  0  0  0  0  0  0  0  0  0  0
   -1.8212   -0.6979    0.0000 C   0  0  0  0  0  0  0  0  0  0  0  0
    1.1387   -0.0305    0.0000 C   0  0  0  0  0  0  0  0  0  0  0  0
    1.9233   -0.2854    0.0000 C   0  0  0  0  0  0  0  0  0  0  0  0
    2.6378    0.1271    0.0000 C   0  0  0  0  0  0  0  0  0  0  0  0
    3.3523   -0.2854    0.0000 C   0  0  0  0  0  0  0  0  0  0  0  0
    3.3523   -1.1104    0.0000 C   0  0  0  0  0  0  0  0  0  0  0  0
    2.6378   -1.5229    0.0000 C   0  0  0  0  0  0  0  0  0  0  0  0
    1.9233   -1.1104    0.0000 C   0  0  0  0  0  0  0  0  0  0  0  0
    0.0768   -2.3215    0.0000 C   0  0  0  0  0  0  0  0  0  0  0  0
   -0.1781   -3.1062    0.0000 C   0  0  0  0  0  0  0  0  0  0  0  0
   -0.9851   -3.2777    0.0000 C   0  0  0  0  0  0  0  0  0  0  0  0
   -1.5371   -2.6646    0.0000 C   0  0  0  0  0  0  0  0  0  0  0  0
   -1.2822   -1.8800    0.0000 C   0  0  0  0  0  0  0  0  0  0  0  0
   -0.4752   -1.7084    0.0000 N   0  0  0  0  0  0  0  0  0  0  0  0
  1  2  1  0  0  0  0
  2  3  1  0  0  0  0
  2 17  1  0  0  0  0
  3  4  2  0  0  0  0
  3 16  1  0  0  0  0
  4  5  1  0  0  0  0
  4 10  1  0  0  0  0
  5  6  1  0  0  0  0
  6  7  1  0  0  0  0
  7  8  1  0  0  0  0
  7  9  1  0  0  0  0
 10 11  1  0  0  0  0
 11 12  2  0  0  0  0
 11 16  1  0  0  0  0
 12 13  1  0  0  0  0
 13 14  2  0  0  0  0
 14 15  1  0  0  0  0
 15 16  2  0  0  0  0
 17 18  2  0  0  0  0
 17 22  1  0  0  0  0
 18 19  1  0  0  0  0
 19 20  2  0  0  0  0
 20 21  1  0  0  0  0
 21 22  2  0  0  0  0
M  END
$$$$

 OpenBabel12191814062D

 21 22  0  0  0  0  0  0  0  0999 V2000
   -0.7145    1.2375    0.0000 C   0  0  0  0  0  0  0  0  0  0  0  0
    0.0000    0.8250    0.0000 C   0  0  3  0  0  0  0  0  0  0  0  0
    0.0000   -0.0000    0.0000 C   0  0  0  0  0  0  0  0  0  0  0  0
   -0.7145   -0.4125    0.0000 C   0  0  0  0  0  0  0  0  0  0  0  0
   -0.7145   -1.2375    0.0000 C   0  0  0  0  0  0  0  0  0  0  0  0
    0.0000   -1.6500    0.0000 C   0  0  0  0  0  0  0  0  0  0  0  0
    0.0000   -2.4750    0.0000 C   0  0  0  0  0  0  0  0  0  0  0  0
   -0.7145   -2.8875    0.0000 C   0  0  0  0  0  0  0  0  0  0  0  0
   -1.4289   -2.4750    0.0000 C   0  0  0  0  0  0  0  0  0  0  0  0
   -1.4289   -1.6500    0.0000 C   0  0  0  0  0  0  0  0  0  0  0  0
   -1.4289   -0.0000    0.0000 C   0  0  0  0  0  0  0  0  0  0  0  0
   -2.1434   -0.4125    0.0000 C   0  0  0  0  0  0  0  0  0  0  0  0
   -2.8579   -0.0000    0.0000 C   0  0  0  0  0  0  0  0  0  0  0  0
   -2.8579    0.8250    0.0000 C   0  0  0  0  0  0  0  0  0  0  0  0
   -2.1434    1.2375    0.0000 C   0  0  0  0  0  0  0  0  0  0  0  0
   -1.4289    0.8250    0.0000 C   0  0  0  0  0  0  0  0  0  0  0  0
    0.7145    1.2375    0.0000 N   0  0  0  0  0  0  0  0  0  0  0  0
    0.7145    2.0625    0.0000 C   0  0  0  0  0  0  0  0  0  0  0  0
    0.7145    2.8875    0.0000 C   0  0  0  0  0  0  0  0  0  0  0  0
    1.5395    2.0625    0.0000 C   0  0  0  0  0  0  0  0  0  0  0  0
   -0.1105    2.0625    0.0000 C   0  0  0  0  0  0  0  0  0  0  0  0
  1  2  1  0  0  0  0
  2  3  1  0  0  0  0
  2 17  1  0  0  0  0
  3  4  1  0  0  0  0
  4  5  1  0  0  0  0
  4 11  1  0  0  0  0
  5  6  2  0  0  0  0
  5 10  1  0  0  0  0
  6  7  1  0  0  0  0
  7  8  2  0  0  0  0
  8  9  1  0  0  0  0
  9 10  2  0  0  0  0
 11 12  2  0  0  0  0
 11 16  1  0  0  0  0
 12 13  1  0  0  0  0
 13 14  2  0  0  0  0
 14 15  1  0  0  0  0
 15 16  2  0  0  0  0
 17 18  1  0  0  0  0
 18 19  1  0  0  0  0
 18 20  1  0  0  0  0
 18 21  1  0  0  0  0
M  END
$$$$

 OpenBabel12191814062D

 25 27  0  0  0  0  0  0  0  0999 V2000
   -2.1434   -0.4125    0.0000 C   0  0  0  0  0  0  0  0  0  0  0  0
   -2.1434   -1.2375    0.0000 C   0  0  3  0  0  0  0  0  0  0  0  0
   -2.8579   -1.6500    0.0000 C   0  0  0  0  0  0  0  0  0  0  0  0
   -3.5724   -1.2375    0.0000 C   0  0  0  0  0  0  0  0  0  0  0  0
   -4.2868   -1.6500    0.0000 C   0  0  0  0  0  0  0  0  0  0  0  0
   -5.0013   -1.2375    0.0000 C   0  0  0  0  0  0  0  0  0  0  0  0
   -5.0013   -0.4125    0.0000 C   0  0  0  0  0  0  0  0  0  0  0  0
   -4.2868   -0.0000    0.0000 C   0  0  0  0  0  0  0  0  0  0  0  0
   -3.5724   -0.4125    0.0000 C   0  0  0  0  0  0  0  0  0  0  0  0
   -1.4289   -1.6500    0.0000 N   0  0  0  0  0  0  0  0  0  0  0  0
   -0.7145   -1.2375    0.0000 C   0  0  0  0  0  0  0  0  0  0  0  0
    0.0000   -1.6500    0.0000 C   0  0  0  0  0  0  0  0  0  0  0  0
    0.7145   -1.2375    0.0000 C   0  0  0  0  0  0  0  0  0  0  0  0
    1.4289   -1.6500    0.0000 C   0  0  0  0  0  0  0  0  0  0  0  0
    2.1434   -1.2375    0.0000 C   0  0  0  0  0  0  0  0  0  0  0  0
    2.8579   -1.6500    0.0000 C   0  0  0  0  0  0  0  0  0  0  0  0
    2.8579   -2.4750    0.0000 C   0  0  0  0  0  0  0  0  0  0  0  0
    2.1434   -2.8875    0.0000 C   0  0  0  0  0  0  0  0  0  0  0  0
    1.4289   -2.4750    0.0000 C   0  0  0  0  0  0  0  0  0  0  0  0
    0.7145   -0.4125    0.0000 C   0  0  0  0  0  0  0  0  0  0  0  0
    0.0000   -0.0000    0.0000 C   0  0  0  0  0  0  0  0  0  0  0  0
    0.0000    0.8250    0.0000 C   0  0  0  0  0  0  0  0  0  0  0  0
    0.7145    1.2375    0.0000 C   0  0  0  0  0  0  0  0  0  0  0  0
    1.4289    0.8250    0.0000 C   0  0  0  0  0  0  0  0  0  0  0  0
    1.4289    0.0000    0.0000 C   0  0  0  0  0  0  0  0  0  0  0  0
  1  2  1  0  0  0  0
  2  3  1  0  0  0  0
  2 10  1  0  0  0  0
  3  4  1  0  0  0  0
  4  5  1  0  0  0  0
  4  9  1  0  0  0  0
  5  6  1  0  0  0  0
  6  7  1  0  0  0  0
  7  8  1  0  0  0  0
  8  9  1  0  0  0  0
 10 11  1  0  0  0  0
 11 12  1  0  0  0  0
 12 13  1  0  0  0  0
 13 14  1  0  0  0  0
 13 20  1  0  0  0  0
 14 15  2  0  0  0  0
 14 19  1  0  0  0  0
 15 16  1  0  0  0  0
 16 17  2  0  0  0  0
 17 18  1  0  0  0  0
 18 19  2  0  0  0  0
 20 21  2  0  0  0  0
 20 25  1  0  0  0  0
 21 22  1  0  0  0  0
 22 23  2  0  0  0  0
 23 24  1  0  0  0  0
 24 25  2  0  0  0  0
M  END
$$$$

 OpenBabel12191814062D

 28 31  0  0  0  0  0  0  0  0999 V2000
    2.8728   -3.9050    0.0000 C   0  0  0  0  0  0  0  0  0  0  0  0
    2.5619   -3.1408    0.0000 C   0  0  3  0  0  0  0  0  0  0  0  0
    1.7447   -3.0280    0.0000 C   0  0  0  0  0  0  0  0  0  0  0  0
    1.2383   -3.6793    0.0000 C   0  0  0  0  0  0  0  0  0  0  0  0
    0.4211   -3.5665    0.0000 C   0  0  0  0  0  0  0  0  0  0  0  0
   -0.0853   -4.2178    0.0000 O   0  0  0  0  0  0  0  0  0  0  0  0
    0.1102   -2.8023    0.0000 O   0  0  0  0  0  0  0  0  0  0  0  0
    3.0683   -2.4895    0.0000 C   0  0  3  0  0  0  0  0  0  0  0  0
    2.8390   -1.6970    0.0000 C   0  0  0  0  0  0  0  0  0  0  0  0
    3.5218   -1.2340    0.0000 C   0  0  0  0  0  0  0  0  0  0  0  0
    4.1731   -1.7404    0.0000 C   0  0  3  0  0  0  0  0  0  0  0  0
    4.9853   -1.5952    0.0000 C   0  0  3  0  0  0  0  0  0  0  0  0
    5.2655   -0.8192    0.0000 C   0  0  3  0  0  0  0  0  0  0  0  0
    4.7337   -0.1885    0.0000 O   0  0  0  0  0  0  0  0  0  0  0  0
    6.0777   -0.6740    0.0000 C   0  0  0  0  0  0  0  0  0  0  0  0
    6.6095   -1.3047    0.0000 C   0  0  3  0  0  0  0  0  0  0  0  0
    7.4216   -1.1595    0.0000 C   0  0  0  0  0  0  0  0  0  0  0  0
    7.9534   -1.7902    0.0000 C   0  0  3  0  0  0  0  0  0  0  0  0
    8.7655   -1.6450    0.0000 O   0  0  0  0  0  0  0  0  0  0  0  0
    7.6731   -2.5662    0.0000 C   0  0  0  0  0  0  0  0  0  0  0  0
    6.8610   -2.7114    0.0000 C   0  0  0  0  0  0  0  0  0  0  0  0
    6.3292   -2.0807    0.0000 C   0  0  3  0  0  0  0  0  0  0  0  0
    6.0489   -2.8566    0.0000 C   0  0  0  0  0  0  0  0  0  0  0  0
    5.5171   -2.2259    0.0000 C   0  0  3  0  0  0  0  0  0  0  0  0
    5.2368   -3.0018    0.0000 C   0  0  0  0  0  0  0  0  0  0  0  0
    4.4247   -3.1470    0.0000 C   0  0  0  0  0  0  0  0  0  0  0  0
    3.8928   -2.5163    0.0000 C   0  0  3  0  0  0  0  0  0  0  0  0
    3.5330   -3.2587    0.0000 C   0  0  0  0  0  0  0  0  0  0  0  0
  1  2  1  0  0  0  0
  2  3  1  0  0  0  0
  2  8  1  0  0  0  0
  3  4  1  0  0  0  0
  4  5  1  0  0  0  0
  5  6  1  0  0  0  0
  5  7  2  0  0  0  0
  8  9  1  0  0  0  0
  8 27  1  0  0  0  0
  9 10  1  0  0  0  0
 10 11  1  0  0  0  0
 11 12  1  0  0  0  0
 11 27  1  0  0  0  0
 12 13  1  0  0  0  0
 12 24  1  0  0  0  0
 13 14  1  0  0  0  0
 13 15  1  0  0  0  0
 15 16  1  0  0  0  0
 16 17  1  0  0  0  0
 16 22  1  0  0  0  0
 17 18  1  0  0  0  0
 18 19  1  0  0  0  0
 18 20  1  0  0  0  0
 20 21  1  0  0  0  0
 21 22  1  0  0  0  0
 22 23  1  0  0  0  0
 22 24  1  0  0  0  0
 24 25  1  0  0  0  0
 25 26  1  0  0  0  0
 26 27  1  0  0  0  0
 27 28  1  0  0  0  0
M  END
$$$$

 OpenBabel12191814062D

 27 30  0  0  0  0  0  0  0  0999 V2000
    2.8728   -3.9050    0.0000 C   0  0  0  0  0  0  0  0  0  0  0  0
    2.5619   -3.1408    0.0000 C   0  0  3  0  0  0  0  0  0  0  0  0
    1.7447   -3.0280    0.0000 C   0  0  0  0  0  0  0  0  0  0  0  0
    1.2383   -3.6793    0.0000 C   0  0  0  0  0  0  0  0  0  0  0  0
    0.4211   -3.5665    0.0000 C   0  0  0  0  0  0  0  0  0  0  0  0
   -0.0853   -4.2178    0.0000 O   0  0  0  0  0  0  0  0  0  0  0  0
    0.1102   -2.8023    0.0000 O   0  0  0  0  0  0  0  0  0  0  0  0
    3.0683   -2.4895    0.0000 C   0  0  3  0  0  0  0  0  0  0  0  0
    2.8390   -1.6970    0.0000 C   0  0  0  0  0  0  0  0  0  0  0  0
    3.5218   -1.2340    0.0000 C   0  0  0  0  0  0  0  0  0  0  0  0
    4.1731   -1.7404    0.0000 C   0  0  3  0  0  0  0  0  0  0  0  0
    4.9853   -1.5952    0.0000 C   0  0  3  0  0  0  0  0  0  0  0  0
    5.2655   -0.8192    0.0000 C   0  0  0  0  0  0  0  0  0  0  0  0
    6.0777   -0.6740    0.0000 C   0  0  0  0  0  0  0  0  0  0  0  0
    6.6095   -1.3047    0.0000 C   0  0  3  0  0  0  0  0  0  0  0  0
    7.4216   -1.1595    0.0000 C   0  0  0  0  0  0  0  0  0  0  0  0
    7.9534   -1.7902    0.0000 C   0  0  3  0  0  0  0  0  0  0  0  0
    8.7655   -1.6450    0.0000 O   0  0  0  0  0  0  0  0  0  0  0  0
    7.6731   -2.5662    0.0000 C   0  0  0  0  0  0  0  0  0  0  0  0
    6.8610   -2.7114    0.0000 C   0  0  0  0  0  0  0  0  0  0  0  0
    6.3292   -2.0807    0.0000 C   0  0  3  0  0  0  0  0  0  0  0  0
    6.0489   -2.8566    0.0000 C   0  0  0  0  0  0  0  0  0  0  0  0
    5.5171   -2.2259    0.0000 C   0  0  3  0  0  0  0  0  0  0  0  0
    5.2368   -3.0018    0.0000 C   0  0  0  0  0  0  0  0  0  0  0  0
    4.4247   -3.1470    0.0000 C   0  0  0  0  0  0  0  0  0  0  0  0
    3.8928   -2.5163    0.0000 C   0  0  3  0  0  0  0  0  0  0  0  0
    3.5330   -3.2587    0.0000 C   0  0  0  0  0  0  0  0  0  0  0  0
  1  2  1  0  0  0  0
  2  3  1  0  0  0  0
  2  8  1  0  0  0  0
  3  4  1  0  0  0  0
  4  5  1  0  0  0  0
  5  6  1  0  0  0  0
  5  7  2  0  0  0  0
  8  9  1  0  0  0  0
  8 26  1  0  0  0  0
  9 10  1  0  0  0  0
 10 11  1  0  0  0  0
 11 12  1  0  0  0  0
 11 26  1  0  0  0  0
 12 13  1  0  0  0  0
 12 23  1  0  0  0  0
 13 14  1  0  0  0  0
 14 15  1  0  0  0  0
 15 16  1  0  0  0  0
 15 21  1  0  0  0  0
 16 17  1  0  0  0  0
 17 18  1  0  0  0  0
 17 19  1  0  0  0  0
 19 20  1  0  0  0  0
 20 21  1  0  0  0  0
 21 22  1  0  0  0  0
 21 23  1  0  0  0  0
 23 24  1  0  0  0  0
 24 25  1  0  0  0  0
 25 26  1  0  0  0  0
 26 27  1  0  0  0  0
M  END
$$$$

 OpenBabel12191814062D

 22 24  0  0  0  0  0  0  0  0999 V2000
    1.5971   -3.9217    0.0000 C   0  0  0  0  0  0  0  0  0  0  0  0
    1.5971   -3.0967    0.0000 C   0  0  3  0  0  0  0  0  0  0  0  0
    0.8826   -2.6842    0.0000 C   0  0  0  0  0  0  0  0  0  0  0  0
    0.1681   -3.0967    0.0000 N   0  0  0  0  0  0  0  0  0  0  0  0
   -0.5463   -2.6842    0.0000 C   0  0  0  0  0  0  0  0  0  0  0  0
    0.1681   -3.9217    0.0000 C   0  0  0  0  0  0  0  0  0  0  0  0
    2.3116   -2.6842    0.0000 C   0  0  0  0  0  0  0  0  0  0  0  0
    3.0260   -3.0967    0.0000 N   0  0  0  0  0  0  0  0  0  0  0  0
    3.7077   -2.6319    0.0000 C   0  0  0  0  0  0  0  0  0  0  0  0
    3.5241   -1.8276    0.0000 C   0  0  0  0  0  0  0  0  0  0  0  0
    4.1289   -1.2665    0.0000 C   0  0  0  0  0  0  0  0  0  0  0  0
    4.9172   -1.5096    0.0000 C   0  0  0  0  0  0  0  0  0  0  0  0
    5.1008   -2.3139    0.0000 C   0  0  0  0  0  0  0  0  0  0  0  0
    4.4960   -2.8751    0.0000 C   0  0  0  0  0  0  0  0  0  0  0  0
    4.7974   -3.6431    0.0000 C   0  0  0  0  0  0  0  0  0  0  0  0
    4.3849   -4.3575    0.0000 C   0  0  0  0  0  0  0  0  0  0  0  0
    3.5691   -4.4805    0.0000 C   0  0  0  0  0  0  0  0  0  0  0  0
    3.3856   -5.2848    0.0000 C   0  0  0  0  0  0  0  0  0  0  0  0
    2.5972   -5.5280    0.0000 C   0  0  0  0  0  0  0  0  0  0  0  0
    1.9925   -4.9668    0.0000 C   0  0  0  0  0  0  0  0  0  0  0  0
    2.1760   -4.1625    0.0000 C   0  0  0  0  0  0  0  0  0  0  0  0
    2.9644   -3.9193    0.0000 C   0  0  0  0  0  0  0  0  0  0  0  0
  1  2  1  0  0  0  0
  2  3  1  0  0  0  0
  2  7  1  0  0  0  0
  3  4  1  0  0  0  0
  4  5  1  0  0  0  0
  4  6  1  0  0  0  0
  7  8  1  0  0  0  0
  8  9  1  0  0  0  0
  8 22  1  0  0  0  0
  9 10  2  0  0  0  0
  9 14  1  0  0  0  0
 10 11  1  0  0  0  0
 11 12  2  0  0  0  0
 12 13  1  0  0  0  0
 13 14  2  0  0  0  0
 14 15  1  0  0  0  0
 15 16  1  0  0  0  0
 16 17  1  0  0  0  0
 17 18  2  0  0  0  0
 17 22  1  0  0  0  0
 18 19  1  0  0  0  0
 19 20  2  0  0  0  0
 20 21  1  0  0  0  0
 21 22  2  0  0  0  0
M  END
$$$$

 OpenBabel12191814062D

 23 25  0  0  0  0  0  0  0  0999 V2000
    1.4289    2.4750    0.0000 C   0  0  0  0  0  0  0  0  0  0  0  0
    2.1434    2.0625    0.0000 C   0  0  3  0  0  0  0  0  0  0  0  0
    2.8579    2.4750    0.0000 C   0  0  0  0  0  0  0  0  0  0  0  0
    2.8579    3.3000    0.0000 N   0  0  0  0  0  0  0  0  0  0  0  0
    3.5724    3.7125    0.0000 C   0  0  0  0  0  0  0  0  0  0  0  0
    2.1434    3.7125    0.0000 C   0  0  0  0  0  0  0  0  0  0  0  0
    2.1434    1.2375    0.0000 N   0  0  0  0  0  0  0  0  0  0  0  0
    2.8579    0.8250    0.0000 C   0  0  0  0  0  0  0  0  0  0  0  0
    3.5724    1.2375    0.0000 C   0  0  0  0  0  0  0  0  0  0  0  0
    4.2868    0.8250    0.0000 C   0  0  0  0  0  0  0  0  0  0  0  0
    4.2868   -0.0000    0.0000 C   0  0  0  0  0  0  0  0  0  0  0  0
    3.5724   -0.4125    0.0000 C   0  0  0  0  0  0  0  0  0  0  0  0
    2.8579    0.0000    0.0000 C   0  0  0  0  0  0  0  0  0  0  0  0
    2.1434   -0.4125    0.0000 S   0  0  0  0  0  0  0  0  0  0  0  0
    1.4289    0.0000    0.0000 C   0  0  0  0  0  0  0  0  0  0  0  0
    0.7145   -0.4125    0.0000 C   0  0  0  0  0  0  0  0  0  0  0  0
    0.0000    0.0000    0.0000 C   0  0  0  0  0  0  0  0  0  0  0  0
    0.0000    0.8250    0.0000 C   0  0  0  0  0  0  0  0  0  0  0  0
    0.7145    1.2375    0.0000 C   0  0  0  0  0  0  0  0  0  0  0  0
    1.4289    0.8250    0.0000 C   0  0  0  0  0  0  0  0  0  0  0  0
   -0.7145    1.2375    0.0000 C   0  0  0  0  0  0  0  0  0  0  0  0
   -1.4289    0.8250    0.0000 C   0  0  0  0  0  0  0  0  0  0  0  0
   -0.7145    2.0625    0.0000 O   0  0  0  0  0  0  0  0  0  0  0  0
  1  2  1  0  0  0  0
  2  3  1  0  0  0  0
  2  7  1  0  0  0  0
  3  4  1  0  0  0  0
  4  5  1  0  0  0  0
  4  6  1  0  0  0  0
  7  8  1  0  0  0  0
  7 20  1  0  0  0  0
  8  9  2  0  0  0  0
  8 13  1  0  0  0  0
  9 10  1  0  0  0  0
 10 11  2  0  0  0  0
 11 12  1  0  0  0  0
 12 13  2  0  0  0  0
 13 14  1  0  0  0  0
 14 15  1  0  0  0  0
 15 16  2  0  0  0  0
 15 20  1  0  0  0  0
 16 17  1  0  0  0  0
 17 18  2  0  0  0  0
 18 19  1  0  0  0  0
 18 21  1  0  0  0  0
 19 20  2  0  0  0  0
 21 22  1  0  0  0  0
 21 23  2  0  0  0  0
M  END
$$$$

 OpenBabel12191814062D

 23 25  0  0  0  0  0  0  0  0999 V2000
    0.7145    2.0625    0.0000 C   0  0  0  0  0  0  0  0  0  0  0  0
    1.4289    2.4750    0.0000 C   0  0  3  0  0  0  0  0  0  0  0  0
    2.1434    2.0625    0.0000 C   0  0  0  0  0  0  0  0  0  0  0  0
    2.1434    1.2375    0.0000 N   0  0  0  0  0  0  0  0  0  0  0  0
    2.8579    0.8250    0.0000 C   0  0  0  0  0  0  0  0  0  0  0  0
    3.5724    1.2375    0.0000 C   0  0  0  0  0  0  0  0  0  0  0  0
    4.2868    0.8250    0.0000 C   0  0  0  0  0  0  0  0  0  0  0  0
    4.2868   -0.0000    0.0000 C   0  0  0  0  0  0  0  0  0  0  0  0
    3.5724   -0.4125    0.0000 C   0  0  0  0  0  0  0  0  0  0  0  0
    2.8579    0.0000    0.0000 C   0  0  0  0  0  0  0  0  0  0  0  0
    2.1434   -0.4125    0.0000 S   0  0  0  0  0  0  0  0  0  0  0  0
    1.4289    0.0000    0.0000 C   0  0  0  0  0  0  0  0  0  0  0  0
    0.7145   -0.4125    0.0000 C   0  0  0  0  0  0  0  0  0  0  0  0
    0.0000    0.0000    0.0000 C   0  0  0  0  0  0  0  0  0  0  0  0
    0.0000    0.8250    0.0000 C   0  0  0  0  0  0  0  0  0  0  0  0
    0.7145    1.2375    0.0000 C   0  0  0  0  0  0  0  0  0  0  0  0
    1.4289    0.8250    0.0000 C   0  0  0  0  0  0  0  0  0  0  0  0
   -0.7145    1.2375    0.0000 C   0  0  0  0  0  0  0  0  0  0  0  0
   -1.4289    0.8250    0.0000 C   0  0  0  0  0  0  0  0  0  0  0  0
   -0.7145    2.0625    0.0000 O   0  0  0  0  0  0  0  0  0  0  0  0
    1.4289    3.3000    0.0000 N   0  0  0  0  0  0  0  0  0  0  0  0
    0.7145    3.7125    0.0000 C   0  0  0  0  0  0  0  0  0  0  0  0
    2.1434    3.7125    0.0000 C   0  0  0  0  0  0  0  0  0  0  0  0
  1  2  1  0  0  0  0
  2  3  1  0  0  0  0
  2 21  1  0  0  0  0
  3  4  1  0  0  0  0
  4  5  1  0  0  0  0
  4 17  1  0  0  0  0
  5  6  2  0  0  0  0
  5 10  1  0  0  0  0
  6  7  1  0  0  0  0
  7  8  2  0  0  0  0
  8  9  1  0  0  0  0
  9 10  2  0  0  0  0
 10 11  1  0  0  0  0
 11 12  1  0  0  0  0
 12 13  2  0  0  0  0
 12 17  1  0  0  0  0
 13 14  1  0  0  0  0
 14 15  2  0  0  0  0
 15 16  1  0  0  0  0
 15 18  1  0  0  0  0
 16 17  2  0  0  0  0
 18 19  1  0  0  0  0
 18 20  2  0  0  0  0
 21 22  1  0  0  0  0
 21 23  1  0  0  0  0
M  END
$$$$

 OpenBabel12191814062D

 20 22  0  0  0  0  0  0  0  0999 V2000
    0.7145    2.0625    0.0000 C   0  0  0  0  0  0  0  0  0  0  0  0
    1.4289    2.4750    0.0000 C   0  0  3  0  0  0  0  0  0  0  0  0
    2.1434    2.0625    0.0000 C   0  0  0  0  0  0  0  0  0  0  0  0
    2.1434    1.2375    0.0000 N   0  0  0  0  0  0  0  0  0  0  0  0
    2.8579    0.8250    0.0000 C   0  0  0  0  0  0  0  0  0  0  0  0
    3.5724    1.2375    0.0000 C   0  0  0  0  0  0  0  0  0  0  0  0
    4.2868    0.8250    0.0000 C   0  0  0  0  0  0  0  0  0  0  0  0
    4.2868   -0.0000    0.0000 C   0  0  0  0  0  0  0  0  0  0  0  0
    3.5724   -0.4125    0.0000 C   0  0  0  0  0  0  0  0  0  0  0  0
    2.8579    0.0000    0.0000 C   0  0  0  0  0  0  0  0  0  0  0  0
    2.1434   -0.4125    0.0000 S   0  0  0  0  0  0  0  0  0  0  0  0
    1.4289    0.0000    0.0000 C   0  0  0  0  0  0  0  0  0  0  0  0
    0.7145   -0.4125    0.0000 C   0  0  0  0  0  0  0  0  0  0  0  0
    0.0000    0.0000    0.0000 C   0  0  0  0  0  0  0  0  0  0  0  0
    0.0000    0.8250    0.0000 C   0  0  0  0  0  0  0  0  0  0  0  0
    0.7145    1.2375    0.0000 C   0  0  0  0  0  0  0  0  0  0  0  0
    1.4289    0.8250    0.0000 C   0  0  0  0  0  0  0  0  0  0  0  0
    1.4289    3.3000    0.0000 N   0  0  0  0  0  0  0  0  0  0  0  0
    0.7145    3.7125    0.0000 C   0  0  0  0  0  0  0  0  0  0  0  0
    2.1434    3.7125    0.0000 C   0  0  0  0  0  0  0  0  0  0  0  0
  1  2  1  0  0  0  0
  2  3  1  0  0  0  0
  2 18  1  0  0  0  0
  3  4  1  0  0  0  0
  4  5  1  0  0  0  0
  4 17  1  0  0  0  0
  5  6  2  0  0  0  0
  5 10  1  0  0  0  0
  6  7  1  0  0  0  0
  7  8  2  0  0  0  0
  8  9  1  0  0  0  0
  9 10  2  0  0  0  0
 10 11  1  0  0  0  0
 11 12  1  0  0  0  0
 12 13  2  0  0  0  0
 12 17  1  0  0  0  0
 13 14  1  0  0  0  0
 14 15  2  0  0  0  0
 15 16  1  0  0  0  0
 16 17  2  0  0  0  0
 18 19  1  0  0  0  0
 18 20  1  0  0  0  0
M  END
$$$$

 OpenBabel12191814062D

 30 33  0  0  0  0  0  0  0  0999 V2000
   -0.0000    4.1250    0.0000 C   0  0  0  0  0  0  0  0  0  0  0  0
   -0.0000    3.3000    0.0000 C   0  0  3  0  0  0  0  0  0  0  0  0
    0.7145    2.8875    0.0000 C   0  0  0  0  0  0  0  0  0  0  0  0
    1.4289    3.3000    0.0000 N   0  0  0  0  0  0  0  0  0  0  0  0
    1.4289    4.1250    0.0000 C   0  0  0  0  0  0  0  0  0  0  0  0
    2.1434    4.5375    0.0000 C   0  0  0  0  0  0  0  0  0  0  0  0
    2.8579    4.1250    0.0000 N   0  0  0  0  0  0  0  0  0  0  0  0
    3.5724    4.5375    0.0000 C   0  0  0  0  0  0  0  0  0  0  0  0
    4.2868    4.1250    0.0000 C   0  0  0  0  0  0  0  0  0  0  0  0
    5.0013    4.5375    0.0000 O   0  0  0  0  0  0  0  0  0  0  0  0
    5.7158    4.1250    0.0000 C   0  0  0  0  0  0  0  0  0  0  0  0
    6.4302    4.5375    0.0000 C   0  0  0  0  0  0  0  0  0  0  0  0
    7.1447    4.1250    0.0000 O   0  0  0  0  0  0  0  0  0  0  0  0
    2.8579    3.3000    0.0000 C   0  0  0  0  0  0  0  0  0  0  0  0
    2.1434    2.8875    0.0000 C   0  0  0  0  0  0  0  0  0  0  0  0
   -0.7145    2.8875    0.0000 C   0  0  0  0  0  0  0  0  0  0  0  0
   -1.4289    3.3000    0.0000 N   0  0  0  0  0  0  0  0  0  0  0  0
   -2.1434    2.8875    0.0000 C   0  0  0  0  0  0  0  0  0  0  0  0
   -2.1434    2.0625    0.0000 C   0  0  0  0  0  0  0  0  0  0  0  0
   -2.8579    1.6500    0.0000 C   0  0  0  0  0  0  0  0  0  0  0  0
   -3.5724    2.0625    0.0000 C   0  0  0  0  0  0  0  0  0  0  0  0
   -3.5724    2.8875    0.0000 C   0  0  0  0  0  0  0  0  0  0  0  0
   -2.8579    3.3000    0.0000 C   0  0  0  0  0  0  0  0  0  0  0  0
   -2.8579    4.1250    0.0000 S   0  0  0  0  0  0  0  0  0  0  0  0
   -2.1434    4.5375    0.0000 C   0  0  0  0  0  0  0  0  0  0  0  0
   -2.1434    5.3625    0.0000 C   0  0  0  0  0  0  0  0  0  0  0  0
   -1.4289    5.7750    0.0000 C   0  0  0  0  0  0  0  0  0  0  0  0
   -0.7145    5.3625    0.0000 C   0  0  0  0  0  0  0  0  0  0  0  0
   -0.7145    4.5375    0.0000 C   0  0  0  0  0  0  0  0  0  0  0  0
   -1.4289    4.1250    0.0000 C   0  0  0  0  0  0  0  0  0  0  0  0
  1  2  1  0  0  0  0
  2  3  1  0  0  0  0
  2 16  1  0  0  0  0
  3  4  1  0  0  0  0
  4  5  1  0  0  0  0
  4 15  1  0  0  0  0
  5  6  1  0  0  0  0
  6  7  1  0  0  0  0
  7  8  1  0  0  0  0
  7 14  1  0  0  0  0
  8  9  1  0  0  0  0
  9 10  1  0  0  0  0
 10 11  1  0  0  0  0
 11 12  1  0  0  0  0
 12 13  1  0  0  0  0
 14 15  1  0  0  0  0
 16 17  1  0  0  0  0
 17 18  1  0  0  0  0
 17 30  1  0  0  0  0
 18 19  2  0  0  0  0
 18 23  1  0  0  0  0
 19 20  1  0  0  0  0
 20 21  2  0  0  0  0
 21 22  1  0  0  0  0
 22 23  2  0  0  0  0
 23 24  1  0  0  0  0
 24 25  1  0  0  0  0
 25 26  2  0  0  0  0
 25 30  1  0  0  0  0
 26 27  1  0  0  0  0
 27 28  2  0  0  0  0
 28 29  1  0  0  0  0
 29 30  2  0  0  0  0
M  END
$$$$

 OpenBabel12191814062D

 20 21  0  0  0  0  0  0  0  0999 V2000
    2.8579   -4.9500    0.0000 C   0  0  0  0  0  0  0  0  0  0  0  0
    2.8579   -4.1250    0.0000 C   0  0  3  0  0  0  0  0  0  0  0  0
    2.1434   -3.7125    0.0000 C   0  0  0  0  0  0  0  0  0  0  0  0
    1.4289   -4.1250    0.0000 O   0  0  0  0  0  0  0  0  0  0  0  0
    0.7145   -3.7125    0.0000 C   0  0  0  0  0  0  0  0  0  0  0  0
    0.0000   -4.1250    0.0000 C   0  0  0  0  0  0  0  0  0  0  0  0
   -0.7145   -3.7125    0.0000 C   0  0  0  0  0  0  0  0  0  0  0  0
   -0.7145   -2.8875    0.0000 C   0  0  0  0  0  0  0  0  0  0  0  0
    0.0000   -2.4750    0.0000 C   0  0  0  0  0  0  0  0  0  0  0  0
    0.7145   -2.8875    0.0000 C   0  0  0  0  0  0  0  0  0  0  0  0
    3.5724   -3.7125    0.0000 N   0  0  0  0  0  0  0  0  0  0  0  0
    4.2868   -4.1250    0.0000 C   0  0  3  0  0  0  0  0  0  0  0  0
    4.2868   -4.9500    0.0000 C   0  0  0  0  0  0  0  0  0  0  0  0
    5.0013   -3.7125    0.0000 C   0  0  0  0  0  0  0  0  0  0  0  0
    5.7158   -4.1250    0.0000 C   0  0  0  0  0  0  0  0  0  0  0  0
    6.4302   -3.7125    0.0000 C   0  0  0  0  0  0  0  0  0  0  0  0
    7.1447   -4.1250    0.0000 C   0  0  0  0  0  0  0  0  0  0  0  0
    7.1447   -4.9500    0.0000 C   0  0  0  0  0  0  0  0  0  0  0  0
    6.4302   -5.3625    0.0000 C   0  0  0  0  0  0  0  0  0  0  0  0
    5.7158   -4.9500    0.0000 C   0  0  0  0  0  0  0  0  0  0  0  0
  1  2  1  0  0  0  0
  2  3  1  0  0  0  0
  2 11  1  0  0  0  0
  3  4  1  0  0  0  0
  4  5  1  0  0  0  0
  5  6  2  0  0  0  0
  5 10  1  0  0  0  0
  6  7  1  0  0  0  0
  7  8  2  0  0  0  0
  8  9  1  0  0  0  0
  9 10  2  0  0  0  0
 11 12  1  0  0  0  0
 12 13  1  0  0  0  0
 12 14  1  0  0  0  0
 14 15  1  0  0  0  0
 15 16  2  0  0  0  0
 15 20  1  0  0  0  0
 16 17  1  0  0  0  0
 17 18  2  0  0  0  0
 18 19  1  0  0  0  0
 19 20  2  0  0  0  0
M  END
$$$$

 OpenBabel12191814062D

 42 47  0  0  0  0  0  0  0  0999 V2000
    3.5963   -8.8052    0.0000 C   0  0  0  0  0  0  0  0  0  0  0  0
    2.7842   -8.9504    0.0000 C   0  0  3  0  0  0  0  0  0  0  0  0
    2.2524   -8.3197    0.0000 N   0  0  0  0  0  0  0  0  0  0  0  0
    2.5327   -7.5438    0.0000 C   0  0  0  0  0  0  0  0  0  0  0  0
    3.3448   -7.3986    0.0000 O   0  0  0  0  0  0  0  0  0  0  0  0
    2.0009   -6.9131    0.0000 N   0  0  0  0  0  0  0  0  0  0  0  0
    2.2812   -6.1372    0.0000 C   0  0  0  0  0  0  0  0  0  0  0  0
    1.7493   -5.5065    0.0000 C   0  0  0  0  0  0  0  0  0  0  0  0
    2.0296   -4.7305    0.0000 C   0  0  0  0  0  0  0  0  0  0  0  0
    2.8417   -4.5853    0.0000 C   0  0  0  0  0  0  0  0  0  0  0  0
    3.1220   -3.8094    0.0000 S   0  0  0  0  0  0  0  0  0  0  0  0
    2.5902   -3.1787    0.0000 C   0  0  3  0  0  0  0  0  0  0  0  0
    1.7781   -3.3239    0.0000 C   0  0  0  0  0  0  0  0  0  0  0  0
    1.2463   -2.6932    0.0000 C   0  0  0  0  0  0  0  0  0  0  0  0
    0.4342   -2.8384    0.0000 C   0  0  0  0  0  0  0  0  0  0  0  0
   -0.0976   -2.2077    0.0000 C   0  0  0  0  0  0  0  0  0  0  0  0
   -0.9098   -2.3529    0.0000 O   0  0  0  0  0  0  0  0  0  0  0  0
    0.1827   -1.4318    0.0000 C   0  0  0  0  0  0  0  0  0  0  0  0
    0.9948   -1.2866    0.0000 C   0  0  0  0  0  0  0  0  0  0  0  0
    1.5266   -1.9173    0.0000 C   0  0  3  0  0  0  0  0  0  0  0  0
    1.8069   -1.1414    0.0000 C   0  0  0  0  0  0  0  0  0  0  0  0
    2.3387   -1.7721    0.0000 C   0  0  3  0  0  0  0  0  0  0  0  0
    2.6190   -0.9961    0.0000 C   0  0  0  0  0  0  0  0  0  0  0  0
    3.4311   -0.8509    0.0000 C   0  0  0  0  0  0  0  0  0  0  0  0
    3.9629   -1.4816    0.0000 C   0  0  3  0  0  0  0  0  0  0  0  0
    4.3228   -0.7393    0.0000 C   0  0  0  0  0  0  0  0  0  0  0  0
    3.6826   -2.2576    0.0000 C   0  0  3  0  0  0  0  0  0  0  0  0
    4.3340   -2.7639    0.0000 C   0  0  0  0  0  0  0  0  0  0  0  0
    5.0168   -2.3009    0.0000 C   0  0  0  0  0  0  0  0  0  0  0  0
    4.7875   -1.5084    0.0000 C   0  0  3  0  0  0  0  0  0  0  0  0
    5.2939   -0.8571    0.0000 C   0  0  0  0  0  0  0  0  0  0  0  0
    6.1111   -0.9700    0.0000 C   0  0  0  0  0  0  0  0  0  0  0  0
    4.9830   -0.0929    0.0000 O   0  0  0  0  0  0  0  0  0  0  0  0
    2.8705   -2.4028    0.0000 C   0  0  3  0  0  0  0  0  0  0  0  0
    3.3736   -5.2160    0.0000 C   0  0  0  0  0  0  0  0  0  0  0  0
    3.0933   -5.9920    0.0000 C   0  0  0  0  0  0  0  0  0  0  0  0
    2.5039   -9.7264    0.0000 C   0  0  0  0  0  0  0  0  0  0  0  0
    3.0357  -10.3571    0.0000 C   0  0  0  0  0  0  0  0  0  0  0  0
    2.7554  -11.1330    0.0000 C   0  0  0  0  0  0  0  0  0  0  0  0
    1.9433  -11.2782    0.0000 C   0  0  0  0  0  0  0  0  0  0  0  0
    1.4115  -10.6475    0.0000 C   0  0  0  0  0  0  0  0  0  0  0  0
    1.6918   -9.8716    0.0000 C   0  0  0  0  0  0  0  0  0  0  0  0
  1  2  1  0  0  0  0
  2  3  1  0  0  0  0
  2 37  1  0  0  0  0
  3  4  1  0  0  0  0
  4  5  2  0  0  0  0
  4  6  1  0  0  0  0
  6  7  1  0  0  0  0
  7  8  2  0  0  0  0
  7 36  1  0  0  0  0
  8  9  1  0  0  0  0
  9 10  2  0  0  0  0
 10 11  1  0  0  0  0
 10 35  1  0  0  0  0
 11 12  1  0  0  0  0
 12 13  1  0  0  0  0
 12 34  1  0  0  0  0
 13 14  1  0  0  0  0
 14 15  2  0  0  0  0
 14 20  1  0  0  0  0
 15 16  1  0  0  0  0
 16 17  2  0  0  0  0
 16 18  1  0  0  0  0
 18 19  1  0  0  0  0
 19 20  1  0  0  0  0
 20 21  1  0  0  0  0
 20 22  1  0  0  0  0
 22 23  1  0  0  0  0
 22 34  1  0  0  0  0
 23 24  1  0  0  0  0
 24 25  1  0  0  0  0
 25 26  1  0  0  0  0
 25 27  1  0  0  0  0
 25 30  1  0  0  0  0
 27 28  1  0  0  0  0
 27 34  1  0  0  0  0
 28 29  1  0  0  0  0
 29 30  1  0  0  0  0
 30 31  1  0  0  0  0
 31 32  1  0  0  0  0
 31 33  2  0  0  0  0
 35 36  2  0  0  0  0
 37 38  2  0  0  0  0
 37 42  1  0  0  0  0
 38 39  1  0  0  0  0
 39 40  2  0  0  0  0
 40 41  1  0  0  0  0
 41 42  2  0  0  0  0
M  END
$$$$

 OpenBabel12191814062D

 24 26  0  0  0  0  0  0  0  0999 V2000
    0.7145   -2.0625    0.0000 C   0  0  0  0  0  0  0  0  0  0  0  0
    0.7145   -1.2375    0.0000 C   0  0  3  0  0  0  0  0  0  0  0  0
    1.4289   -0.8250    0.0000 N   0  0  0  0  0  0  0  0  0  0  0  0
    2.1434   -1.2375    0.0000 C   0  0  0  0  0  0  0  0  0  0  0  0
    2.8579   -0.8250    0.0000 C   0  0  0  0  0  0  0  0  0  0  0  0
    3.5724   -1.2375    0.0000 C   0  0  0  0  0  0  0  0  0  0  0  0
    4.2868   -0.8250    0.0000 C   0  0  0  0  0  0  0  0  0  0  0  0
    4.2868    0.0000    0.0000 C   0  0  0  0  0  0  0  0  0  0  0  0
    5.0013    0.4125    0.0000 C   0  0  0  0  0  0  0  0  0  0  0  0
    5.7158    0.0000    0.0000 C   0  0  0  0  0  0  0  0  0  0  0  0
    5.7158   -0.8250    0.0000 C   0  0  0  0  0  0  0  0  0  0  0  0
    5.0013   -1.2375    0.0000 C   0  0  0  0  0  0  0  0  0  0  0  0
    3.5724   -2.0625    0.0000 C   0  0  0  0  0  0  0  0  0  0  0  0
    4.2868   -2.4750    0.0000 C   0  0  0  0  0  0  0  0  0  0  0  0
    4.2868   -3.3000    0.0000 C   0  0  0  0  0  0  0  0  0  0  0  0
    3.5724   -3.7125    0.0000 C   0  0  0  0  0  0  0  0  0  0  0  0
    2.8579   -3.3000    0.0000 C   0  0  0  0  0  0  0  0  0  0  0  0
    2.8579   -2.4750    0.0000 C   0  0  0  0  0  0  0  0  0  0  0  0
    0.0000   -0.8250    0.0000 C   0  0  0  0  0  0  0  0  0  0  0  0
   -0.7145   -1.2375    0.0000 C   0  0  0  0  0  0  0  0  0  0  0  0
   -1.4289   -0.8250    0.0000 C   0  0  0  0  0  0  0  0  0  0  0  0
   -1.4289   -0.0000    0.0000 C   0  0  0  0  0  0  0  0  0  0  0  0
   -0.7145    0.4125    0.0000 C   0  0  0  0  0  0  0  0  0  0  0  0
    0.0000   -0.0000    0.0000 C   0  0  0  0  0  0  0  0  0  0  0  0
  1  2  1  0  0  0  0
  2  3  1  0  0  0  0
  2 19  1  0  0  0  0
  3  4  1  0  0  0  0
  4  5  1  0  0  0  0
  5  6  1  0  0  0  0
  6  7  1  0  0  0  0
  6 13  1  0  0  0  0
  7  8  2  0  0  0  0
  7 12  1  0  0  0  0
  8  9  1  0  0  0  0
  9 10  2  0  0  0  0
 10 11  1  0  0  0  0
 11 12  2  0  0  0  0
 13 14  2  0  0  0  0
 13 18  1  0  0  0  0
 14 15  1  0  0  0  0
 15 16  2  0  0  0  0
 16 17  1  0  0  0  0
 17 18  2  0  0  0  0
 19 20  2  0  0  0  0
 19 24  1  0  0  0  0
 20 21  1  0  0  0  0
 21 22  2  0  0  0  0
 22 23  1  0  0  0  0
 23 24  2  0  0  0  0
M  END
$$$$

 OpenBabel12191814062D

 38 41  0  0  0  0  0  0  0  0999 V2000
   -0.7145   -6.1875    0.0000 C   0  0  0  0  0  0  0  0  0  0  0  0
   -1.4289   -5.7750    0.0000 C   0  0  3  0  0  0  0  0  0  0  0  0
   -2.1434   -6.1875    0.0000 O   0  0  0  0  0  0  0  0  0  0  0  0
   -1.4289   -4.9500    0.0000 C   0  0  0  0  0  0  0  0  0  0  0  0
   -2.1434   -4.5375    0.0000 N   0  0  0  0  0  0  0  0  0  0  0  0
   -2.8579   -4.9500    0.0000 C   0  0  0  0  0  0  0  0  0  0  0  0
   -2.8579   -5.7750    0.0000 C   0  0  0  0  0  0  0  0  0  0  0  0
   -3.5724   -6.1875    0.0000 O   0  0  0  0  0  0  0  0  0  0  0  0
   -2.1434   -3.7125    0.0000 C   0  0  0  0  0  0  0  0  0  0  0  0
   -2.8579   -3.3000    0.0000 N   0  0  0  0  0  0  0  0  0  0  0  0
   -2.8579   -2.4750    0.0000 C   0  0  0  0  0  0  0  0  0  0  0  0
   -3.5724   -2.0625    0.0000 N   0  0  0  0  0  0  0  0  0  0  0  0
   -4.2868   -2.4750    0.0000 C   0  0  0  0  0  0  0  0  0  0  0  0
   -5.0013   -2.0625    0.0000 C   0  0  0  0  0  0  0  0  0  0  0  0
   -5.0013   -1.2375    0.0000 C   0  0  0  0  0  0  0  0  0  0  0  0
   -4.2868   -0.8250    0.0000 C   0  0  0  0  0  0  0  0  0  0  0  0
   -3.5724   -1.2375    0.0000 C   0  0  0  0  0  0  0  0  0  0  0  0
   -2.1434   -2.0625    0.0000 C   0  0  0  0  0  0  0  0  0  0  0  0
   -2.1434   -1.2375    0.0000 N   0  0  0  0  0  0  0  0  0  0  0  0
   -1.4289   -0.8250    0.0000 C   0  0  0  0  0  0  0  0  0  0  0  0
   -0.7145   -1.2375    0.0000 N   0  0  0  0  0  0  0  0  0  0  0  0
   -0.7145   -2.0625    0.0000 C   0  0  0  0  0  0  0  0  0  0  0  0
    0.0000   -2.4750    0.0000 N   0  0  0  0  0  0  0  0  0  0  0  0
    0.7145   -2.0625    0.0000 C   0  0  0  0  0  0  0  0  0  0  0  0
    1.4289   -2.4750    0.0000 C   0  0  0  0  0  0  0  0  0  0  0  0
    1.4289   -3.3000    0.0000 C   0  0  0  0  0  0  0  0  0  0  0  0
    0.7145   -3.7125    0.0000 C   0  0  0  0  0  0  0  0  0  0  0  0
    0.0000   -3.3000    0.0000 C   0  0  0  0  0  0  0  0  0  0  0  0
   -1.4289   -2.4750    0.0000 C   0  0  0  0  0  0  0  0  0  0  0  0
   -1.4289   -3.3000    0.0000 N   0  0  0  0  0  0  0  0  0  0  0  0
   -1.4289    0.0000    0.0000 N   0  0  0  0  0  0  0  0  0  0  0  0
   -2.1434    0.4125    0.0000 C   0  0  0  0  0  0  0  0  0  0  0  0
   -2.1434    1.2375    0.0000 C   0  0  0  0  0  0  0  0  0  0  0  0
   -2.8579    1.6500    0.0000 O   0  0  0  0  0  0  0  0  0  0  0  0
   -0.7145    0.4125    0.0000 C   0  0  0  0  0  0  0  0  0  0  0  0
   -0.7145    1.2375    0.0000 C   0  0  3  0  0  0  0  0  0  0  0  0
   -1.4289    1.6500    0.0000 C   0  0  0  0  0  0  0  0  0  0  0  0
    0.0000    1.6500    0.0000 O   0  0  0  0  0  0  0  0  0  0  0  0
  1  2  1  0  0  0  0
  2  3  1  0  0  0  0
  2  4  1  0  0  0  0
  4  5  1  0  0  0  0
  5  6  1  0  0  0  0
  5  9  1  0  0  0  0
  6  7  1  0  0  0  0
  7  8  1  0  0  0  0
  9 10  2  0  0  0  0
  9 30  1  0  0  0  0
 10 11  1  0  0  0  0
 11 12  1  0  0  0  0
 11 18  2  0  0  0  0
 12 13  1  0  0  0  0
 12 17  1  0  0  0  0
 13 14  1  0  0  0  0
 14 15  1  0  0  0  0
 15 16  1  0  0  0  0
 16 17  1  0  0  0  0
 18 19  1  0  0  0  0
 18 29  1  0  0  0  0
 19 20  2  0  0  0  0
 20 21  1  0  0  0  0
 20 31  1  0  0  0  0
 21 22  2  0  0  0  0
 22 23  1  0  0  0  0
 22 29  1  0  0  0  0
 23 24  1  0  0  0  0
 23 28  1  0  0  0  0
 24 25  1  0  0  0  0
 25 26  1  0  0  0  0
 26 27  1  0  0  0  0
 27 28  1  0  0  0  0
 29 30  2  0  0  0  0
 31 32  1  0  0  0  0
 31 35  1  0  0  0  0
 32 33  1  0  0  0  0
 33 34  1  0  0  0  0
 35 36  1  0  0  0  0
 36 37  1  0  0  0  0
 36 38  1  0  0  0  0
M  END
$$$$

 OpenBabel12191814062D

 38 42  0  0  0  0  0  0  0  0999 V2000
   -0.7145   -2.8875    0.0000 C   0  0  0  0  0  0  0  0  0  0  0  0
    0.0000   -2.4750    0.0000 C   0  0  3  0  0  0  0  0  0  0  0  0
    0.0000   -1.6500    0.0000 O   0  0  0  0  0  0  0  0  0  0  0  0
    0.7145   -2.8875    0.0000 C   0  0  0  0  0  0  0  0  0  0  0  0
    1.4289   -2.4750    0.0000 N   0  0  0  0  0  0  0  0  0  0  0  0
    2.1434   -2.8875    0.0000 C   0  0  0  0  0  0  0  0  0  0  0  0
    2.8579   -2.4750    0.0000 C   0  0  0  0  0  0  0  0  0  0  0  0
    3.5724   -2.8875    0.0000 O   0  0  0  0  0  0  0  0  0  0  0  0
    1.4289   -1.6500    0.0000 C   0  0  0  0  0  0  0  0  0  0  0  0
    0.7145   -1.2375    0.0000 N   0  0  0  0  0  0  0  0  0  0  0  0
    0.7145   -0.4125    0.0000 C   0  0  0  0  0  0  0  0  0  0  0  0
    1.4289    0.0000    0.0000 N   0  0  0  0  0  0  0  0  0  0  0  0
    2.1434   -0.4125    0.0000 C   0  0  0  0  0  0  0  0  0  0  0  0
    2.8579    0.0000    0.0000 N   0  0  0  0  0  0  0  0  0  0  0  0
    3.5724   -0.4125    0.0000 C   0  0  0  0  0  0  0  0  0  0  0  0
    4.2868   -0.0000    0.0000 N   0  0  0  0  0  0  0  0  0  0  0  0
    5.0013   -0.4125    0.0000 C   0  0  0  0  0  0  0  0  0  0  0  0
    5.7158   -0.0000    0.0000 C   0  0  0  0  0  0  0  0  0  0  0  0
    5.7158    0.8250    0.0000 O   0  0  0  0  0  0  0  0  0  0  0  0
    5.0013    1.2375    0.0000 C   0  0  0  0  0  0  0  0  0  0  0  0
    4.2868    0.8250    0.0000 C   0  0  3  0  0  0  0  0  0  0  0  0
    3.5724    1.2375    0.0000 C   0  0  0  0  0  0  0  0  0  0  0  0
    3.5724   -1.2375    0.0000 C   0  0  0  0  0  0  0  0  0  0  0  0
    2.8579   -1.6500    0.0000 N   0  0  0  0  0  0  0  0  0  0  0  0
    2.1434   -1.2375    0.0000 C   0  0  0  0  0  0  0  0  0  0  0  0
    4.2868   -1.6500    0.0000 C   0  0  0  0  0  0  0  0  0  0  0  0
    5.0013   -1.2375    0.0000 C   0  0  0  0  0  0  0  0  0  0  0  0
    5.7158   -1.6500    0.0000 C   0  0  0  0  0  0  0  0  0  0  0  0
    5.7158   -2.4750    0.0000 C   0  0  0  0  0  0  0  0  0  0  0  0
    5.0013   -2.8875    0.0000 C   0  0  0  0  0  0  0  0  0  0  0  0
    4.2868   -2.4750    0.0000 C   0  0  0  0  0  0  0  0  0  0  0  0
    0.0000    0.0000    0.0000 N   0  0  0  0  0  0  0  0  0  0  0  0
    0.0000    0.8250    0.0000 C   0  0  0  0  0  0  0  0  0  0  0  0
   -0.7145    1.2375    0.0000 C   0  0  0  0  0  0  0  0  0  0  0  0
   -1.4289    0.8250    0.0000 O   0  0  0  0  0  0  0  0  0  0  0  0
   -1.4289    0.0000    0.0000 C   0  0  0  0  0  0  0  0  0  0  0  0
   -0.7145   -0.4125    0.0000 C   0  0  3  0  0  0  0  0  0  0  0  0
   -0.7145   -1.2375    0.0000 C   0  0  0  0  0  0  0  0  0  0  0  0
  1  2  1  0  0  0  0
  2  3  1  0  0  0  0
  2  4  1  0  0  0  0
  4  5  1  0  0  0  0
  5  6  1  0  0  0  0
  5  9  1  0  0  0  0
  6  7  1  0  0  0  0
  7  8  1  0  0  0  0
  9 10  2  0  0  0  0
  9 25  1  0  0  0  0
 10 11  1  0  0  0  0
 11 12  2  0  0  0  0
 11 32  1  0  0  0  0
 12 13  1  0  0  0  0
 13 14  2  0  0  0  0
 13 25  1  0  0  0  0
 14 15  1  0  0  0  0
 15 16  1  0  0  0  0
 15 23  2  0  0  0  0
 16 17  1  0  0  0  0
 16 21  1  0  0  0  0
 17 18  1  0  0  0  0
 18 19  1  0  0  0  0
 19 20  1  0  0  0  0
 20 21  1  0  0  0  0
 21 22  1  0  0  0  0
 23 24  1  0  0  0  0
 23 26  1  0  0  0  0
 24 25  2  0  0  0  0
 26 27  2  0  0  0  0
 26 31  1  0  0  0  0
 27 28  1  0  0  0  0
 28 29  2  0  0  0  0
 29 30  1  0  0  0  0
 30 31  2  0  0  0  0
 32 33  1  0  0  0  0
 32 37  1  0  0  0  0
 33 34  1  0  0  0  0
 34 35  1  0  0  0  0
 35 36  1  0  0  0  0
 36 37  1  0  0  0  0
 37 38  1  0  0  0  0
M  END
$$$$

 OpenBabel12191814062D

 25 27  0  0  0  0  0  0  0  0999 V2000
   -1.7852    1.4423    0.0000 C   0  0  0  0  0  0  0  0  0  0  0  0
   -1.7852    0.6173    0.0000 C   0  0  3  0  0  0  0  0  0  0  0  0
   -2.6102    0.6173    0.0000 O   0  0  0  0  0  0  0  0  0  0  0  0
   -3.0227   -0.0971    0.0000 C   0  0  0  0  0  0  0  0  0  0  0  0
   -3.8477   -0.0971    0.0000 C   0  0  0  0  0  0  0  0  0  0  0  0
   -4.2602   -0.8116    0.0000 N   0  0  0  0  0  0  0  0  0  0  0  0
   -3.7955   -1.4932    0.0000 C   0  0  0  0  0  0  0  0  0  0  0  0
   -4.0386   -2.2816    0.0000 C   0  0  0  0  0  0  0  0  0  0  0  0
   -4.8066   -2.5830    0.0000 C   0  0  0  0  0  0  0  0  0  0  0  0
   -5.5211   -2.1705    0.0000 C   0  0  0  0  0  0  0  0  0  0  0  0
   -5.6440   -1.3547    0.0000 C   0  0  0  0  0  0  0  0  0  0  0  0
   -5.0829   -0.7500    0.0000 C   0  0  0  0  0  0  0  0  0  0  0  0
   -1.7852   -0.2077    0.0000 C   0  0  0  0  0  0  0  0  0  0  0  0
   -1.0707   -0.6202    0.0000 C   0  0  0  0  0  0  0  0  0  0  0  0
   -1.0707   -1.4452    0.0000 C   0  0  0  0  0  0  0  0  0  0  0  0
   -1.7852   -1.8577    0.0000 C   0  0  0  0  0  0  0  0  0  0  0  0
   -2.4997   -1.4452    0.0000 C   0  0  0  0  0  0  0  0  0  0  0  0
   -2.4997   -0.6202    0.0000 C   0  0  0  0  0  0  0  0  0  0  0  0
   -0.9602    0.6173    0.0000 C   0  0  0  0  0  0  0  0  0  0  0  0
   -0.5477    1.3318    0.0000 C   0  0  0  0  0  0  0  0  0  0  0  0
    0.2773    1.3318    0.0000 C   0  0  0  0  0  0  0  0  0  0  0  0
    0.6898    0.6173    0.0000 C   0  0  0  0  0  0  0  0  0  0  0  0
    1.5148    0.6173    0.0000 Cl  0  0  0  0  0  0  0  0  0  0  0  0
    0.2773   -0.0971    0.0000 C   0  0  0  0  0  0  0  0  0  0  0  0
   -0.5477   -0.0971    0.0000 C   0  0  0  0  0  0  0  0  0  0  0  0
  1  2  1  0  0  0  0
  2  3  1  0  0  0  0
  2 13  1  0  0  0  0
  2 19  1  0  0  0  0
  3  4  1  0  0  0  0
  4  5  1  0  0  0  0
  5  6  1  0  0  0  0
  6  7  1  0  0  0  0
  6 12  1  0  0  0  0
  7  8  1  0  0  0  0
  8  9  1  0  0  0  0
  9 10  1  0  0  0  0
 10 11  1  0  0  0  0
 11 12  1  0  0  0  0
 13 14  2  0  0  0  0
 13 18  1  0  0  0  0
 14 15  1  0  0  0  0
 15 16  2  0  0  0  0
 16 17  1  0  0  0  0
 17 18  2  0  0  0  0
 19 20  2  0  0  0  0
 19 25  1  0  0  0  0
 20 21  1  0  0  0  0
 21 22  2  0  0  0  0
 22 23  1  0  0  0  0
 22 24  1  0  0  0  0
 24 25  2  0  0  0  0
M  END
$$$$

 OpenBabel12191814062D

 29 31  0  0  0  0  0  0  0  0999 V2000
   -0.7145   -1.2375    0.0000 C   0  0  0  0  0  0  0  0  0  0  0  0
    0.0000   -1.6500    0.0000 C   0  0  0  0  0  0  0  0  0  0  0  0
    0.7145   -1.2375    0.0000 C   0  0  0  0  0  0  0  0  0  0  0  0
    1.4289   -1.6500    0.0000 C   0  0  0  0  0  0  0  0  0  0  0  0
    1.4289   -2.4750    0.0000 C   0  0  0  0  0  0  0  0  0  0  0  0
    2.1434   -2.8875    0.0000 C   0  0  0  0  0  0  0  0  0  0  0  0
    2.1434   -3.7125    0.0000 C   0  0  0  0  0  0  0  0  0  0  0  0
    1.4289   -4.1250    0.0000 C   0  0  0  0  0  0  0  0  0  0  0  0
    1.4289   -4.9500    0.0000 O   0  0  0  0  0  0  0  0  0  0  0  0
    0.7145   -3.7125    0.0000 C   0  0  0  0  0  0  0  0  0  0  0  0
    0.7145   -2.8875    0.0000 C   0  0  0  0  0  0  0  0  0  0  0  0
    2.1434   -1.2375    0.0000 C   0  0  0  0  0  0  0  0  0  0  0  0
    2.1434   -0.4125    0.0000 C   0  0  0  0  0  0  0  0  0  0  0  0
    2.8579    0.0000    0.0000 C   0  0  0  0  0  0  0  0  0  0  0  0
    3.5724   -0.4125    0.0000 C   0  0  0  0  0  0  0  0  0  0  0  0
    4.2868    0.0000    0.0000 O   0  0  0  0  0  0  0  0  0  0  0  0
    5.0013   -0.4125    0.0000 C   0  0  0  0  0  0  0  0  0  0  0  0
    5.7158    0.0000    0.0000 C   0  0  0  0  0  0  0  0  0  0  0  0
    6.4302   -0.4125    0.0000 N   0  0  0  0  0  0  0  0  0  0  0  0
    7.1447    0.0000    0.0000 C   0  0  0  0  0  0  0  0  0  0  0  0
    6.4302   -1.2375    0.0000 C   0  0  0  0  0  0  0  0  0  0  0  0
    3.5724   -1.2375    0.0000 C   0  0  0  0  0  0  0  0  0  0  0  0
    2.8579   -1.6500    0.0000 C   0  0  0  0  0  0  0  0  0  0  0  0
    0.7145   -0.4125    0.0000 C   0  0  0  0  0  0  0  0  0  0  0  0
   -0.0000   -0.0000    0.0000 C   0  0  0  0  0  0  0  0  0  0  0  0
   -0.0000    0.8250    0.0000 C   0  0  0  0  0  0  0  0  0  0  0  0
    0.7145    1.2375    0.0000 C   0  0  0  0  0  0  0  0  0  0  0  0
    1.4289    0.8250    0.0000 C   0  0  0  0  0  0  0  0  0  0  0  0
    1.4289   -0.0000    0.0000 C   0  0  0  0  0  0  0  0  0  0  0  0
  1  2  1  0  0  0  0
  2  3  1  0  0  0  0
  3  4  2  0  0  0  0
  3 24  1  0  0  0  0
  4  5  1  0  0  0  0
  4 12  1  0  0  0  0
  5  6  2  0  0  0  0
  5 11  1  0  0  0  0
  6  7  1  0  0  0  0
  7  8  2  0  0  0  0
  8  9  1  0  0  0  0
  8 10  1  0  0  0  0
 10 11  2  0  0  0  0
 12 13  2  0  0  0  0
 12 23  1  0  0  0  0
 13 14  1  0  0  0  0
 14 15  2  0  0  0  0
 15 16  1  0  0  0  0
 15 22  1  0  0  0  0
 16 17  1  0  0  0  0
 17 18  1  0  0  0  0
 18 19  1  0  0  0  0
 19 20  1  0  0  0  0
 19 21  1  0  0  0  0
 22 23  2  0  0  0  0
 24 25  2  0  0  0  0
 24 29  1  0  0  0  0
 25 26  1  0  0  0  0
 26 27  2  0  0  0  0
 27 28  1  0  0  0  0
 28 29  2  0  0  0  0
M  END
$$$$

 OpenBabel12191814062D

 28 30  0  0  0  0  0  0  0  0999 V2000
   -0.7145   -1.2375    0.0000 C   0  0  0  0  0  0  0  0  0  0  0  0
    0.0000   -1.6500    0.0000 C   0  0  0  0  0  0  0  0  0  0  0  0
    0.7145   -1.2375    0.0000 C   0  0  0  0  0  0  0  0  0  0  0  0
    1.4289   -1.6500    0.0000 C   0  0  0  0  0  0  0  0  0  0  0  0
    1.4289   -2.4750    0.0000 C   0  0  0  0  0  0  0  0  0  0  0  0
    2.1434   -2.8875    0.0000 C   0  0  0  0  0  0  0  0  0  0  0  0
    2.1434   -3.7125    0.0000 C   0  0  0  0  0  0  0  0  0  0  0  0
    1.4289   -4.1250    0.0000 C   0  0  0  0  0  0  0  0  0  0  0  0
    0.7145   -3.7125    0.0000 C   0  0  0  0  0  0  0  0  0  0  0  0
    0.7145   -2.8875    0.0000 C   0  0  0  0  0  0  0  0  0  0  0  0
    2.1434   -1.2375    0.0000 C   0  0  0  0  0  0  0  0  0  0  0  0
    2.1434   -0.4125    0.0000 C   0  0  0  0  0  0  0  0  0  0  0  0
    2.8579    0.0000    0.0000 C   0  0  0  0  0  0  0  0  0  0  0  0
    3.5724   -0.4125    0.0000 C   0  0  0  0  0  0  0  0  0  0  0  0
    4.2868    0.0000    0.0000 O   0  0  0  0  0  0  0  0  0  0  0  0
    5.0013   -0.4125    0.0000 C   0  0  0  0  0  0  0  0  0  0  0  0
    5.7158    0.0000    0.0000 C   0  0  0  0  0  0  0  0  0  0  0  0
    6.4302   -0.4125    0.0000 N   0  0  0  0  0  0  0  0  0  0  0  0
    7.1447    0.0000    0.0000 C   0  0  0  0  0  0  0  0  0  0  0  0
    6.4302   -1.2375    0.0000 C   0  0  0  0  0  0  0  0  0  0  0  0
    3.5724   -1.2375    0.0000 C   0  0  0  0  0  0  0  0  0  0  0  0
    2.8579   -1.6500    0.0000 C   0  0  0  0  0  0  0  0  0  0  0  0
    0.7145   -0.4125    0.0000 C   0  0  0  0  0  0  0  0  0  0  0  0
   -0.0000   -0.0000    0.0000 C   0  0  0  0  0  0  0  0  0  0  0  0
   -0.0000    0.8250    0.0000 C   0  0  0  0  0  0  0  0  0  0  0  0
    0.7145    1.2375    0.0000 C   0  0  0  0  0  0  0  0  0  0  0  0
    1.4289    0.8250    0.0000 C   0  0  0  0  0  0  0  0  0  0  0  0
    1.4289   -0.0000    0.0000 C   0  0  0  0  0  0  0  0  0  0  0  0
  1  2  1  0  0  0  0
  2  3  1  0  0  0  0
  3  4  2  0  0  0  0
  3 23  1  0  0  0  0
  4  5  1  0  0  0  0
  4 11  1  0  0  0  0
  5  6  2  0  0  0  0
  5 10  1  0  0  0  0
  6  7  1  0  0  0  0
  7  8  2  0  0  0  0
  8  9  1  0  0  0  0
  9 10  2  0  0  0  0
 11 12  2  0  0  0  0
 11 22  1  0  0  0  0
 12 13  1  0  0  0  0
 13 14  2  0  0  0  0
 14 15  1  0  0  0  0
 14 21  1  0  0  0  0
 15 16  1  0  0  0  0
 16 17  1  0  0  0  0
 17 18  1  0  0  0  0
 18 19  1  0  0  0  0
 18 20  1  0  0  0  0
 21 22  2  0  0  0  0
 23 24  2  0  0  0  0
 23 28  1  0  0  0  0
 24 25  1  0  0  0  0
 25 26  2  0  0  0  0
 26 27  1  0  0  0  0
 27 28  2  0  0  0  0
M  END
$$$$

 OpenBabel12191814062D

 27 29  0  0  0  0  0  0  0  0999 V2000
   -0.7145   -1.2375    0.0000 C   0  0  0  0  0  0  0  0  0  0  0  0
    0.0000   -1.6500    0.0000 C   0  0  0  0  0  0  0  0  0  0  0  0
    0.7145   -1.2375    0.0000 C   0  0  0  0  0  0  0  0  0  0  0  0
    1.4289   -1.6500    0.0000 C   0  0  0  0  0  0  0  0  0  0  0  0
    1.4289   -2.4750    0.0000 C   0  0  0  0  0  0  0  0  0  0  0  0
    2.1434   -2.8875    0.0000 C   0  0  0  0  0  0  0  0  0  0  0  0
    2.1434   -3.7125    0.0000 C   0  0  0  0  0  0  0  0  0  0  0  0
    1.4289   -4.1250    0.0000 C   0  0  0  0  0  0  0  0  0  0  0  0
    0.7145   -3.7125    0.0000 C   0  0  0  0  0  0  0  0  0  0  0  0
    0.7145   -2.8875    0.0000 C   0  0  0  0  0  0  0  0  0  0  0  0
    2.1434   -1.2375    0.0000 C   0  0  0  0  0  0  0  0  0  0  0  0
    2.1434   -0.4125    0.0000 C   0  0  0  0  0  0  0  0  0  0  0  0
    2.8579    0.0000    0.0000 C   0  0  0  0  0  0  0  0  0  0  0  0
    3.5724   -0.4125    0.0000 C   0  0  0  0  0  0  0  0  0  0  0  0
    4.2868    0.0000    0.0000 O   0  0  0  0  0  0  0  0  0  0  0  0
    5.0013   -0.4125    0.0000 C   0  0  0  0  0  0  0  0  0  0  0  0
    5.7158    0.0000    0.0000 C   0  0  0  0  0  0  0  0  0  0  0  0
    6.4302   -0.4125    0.0000 N   0  0  0  0  0  0  0  0  0  0  0  0
    7.1447    0.0000    0.0000 C   0  0  0  0  0  0  0  0  0  0  0  0
    3.5724   -1.2375    0.0000 C   0  0  0  0  0  0  0  0  0  0  0  0
    2.8579   -1.6500    0.0000 C   0  0  0  0  0  0  0  0  0  0  0  0
    0.7145   -0.4125    0.0000 C   0  0  0  0  0  0  0  0  0  0  0  0
   -0.0000   -0.0000    0.0000 C   0  0  0  0  0  0  0  0  0  0  0  0
   -0.0000    0.8250    0.0000 C   0  0  0  0  0  0  0  0  0  0  0  0
    0.7145    1.2375    0.0000 C   0  0  0  0  0  0  0  0  0  0  0  0
    1.4289    0.8250    0.0000 C   0  0  0  0  0  0  0  0  0  0  0  0
    1.4289   -0.0000    0.0000 C   0  0  0  0  0  0  0  0  0  0  0  0
  1  2  1  0  0  0  0
  2  3  1  0  0  0  0
  3  4  2  0  0  0  0
  3 22  1  0  0  0  0
  4  5  1  0  0  0  0
  4 11  1  0  0  0  0
  5  6  2  0  0  0  0
  5 10  1  0  0  0  0
  6  7  1  0  0  0  0
  7  8  2  0  0  0  0
  8  9  1  0  0  0  0
  9 10  2  0  0  0  0
 11 12  2  0  0  0  0
 11 21  1  0  0  0  0
 12 13  1  0  0  0  0
 13 14  2  0  0  0  0
 14 15  1  0  0  0  0
 14 20  1  0  0  0  0
 15 16  1  0  0  0  0
 16 17  1  0  0  0  0
 17 18  1  0  0  0  0
 18 19  1  0  0  0  0
 20 21  2  0  0  0  0
 22 23  2  0  0  0  0
 22 27  1  0  0  0  0
 23 24  1  0  0  0  0
 24 25  2  0  0  0  0
 25 26  1  0  0  0  0
 26 27  2  0  0  0  0
M  END
$$$$

 OpenBabel12191814062D

 29 31  0  0  0  0  0  0  0  0999 V2000
   -5.7158   -4.9500    0.0000 C   0  0  0  0  0  0  0  0  0  0  0  0
   -5.0013   -5.3625    0.0000 C   0  0  0  0  0  0  0  0  0  0  0  0
   -5.0013   -6.1875    0.0000 C   0  0  0  0  0  0  0  0  0  0  0  0
   -4.2868   -6.6000    0.0000 C   0  0  0  0  0  0  0  0  0  0  0  0
   -4.2868   -7.4250    0.0000 C   0  0  0  0  0  0  0  0  0  0  0  0
   -3.5724   -7.8375    0.0000 C   0  0  0  0  0  0  0  0  0  0  0  0
   -3.5724   -8.6625    0.0000 C   0  0  0  0  0  0  0  0  0  0  0  0
   -4.2868   -9.0750    0.0000 C   0  0  0  0  0  0  0  0  0  0  0  0
   -4.2868   -9.9000    0.0000 I   0  0  0  0  0  0  0  0  0  0  0  0
   -5.0013   -8.6625    0.0000 C   0  0  0  0  0  0  0  0  0  0  0  0
   -5.0013   -7.8375    0.0000 C   0  0  0  0  0  0  0  0  0  0  0  0
   -3.5724   -6.1875    0.0000 C   0  0  0  0  0  0  0  0  0  0  0  0
   -3.5724   -5.3625    0.0000 C   0  0  0  0  0  0  0  0  0  0  0  0
   -2.8579   -4.9500    0.0000 C   0  0  0  0  0  0  0  0  0  0  0  0
   -2.1434   -5.3625    0.0000 C   0  0  0  0  0  0  0  0  0  0  0  0
   -1.4289   -4.9500    0.0000 O   0  0  0  0  0  0  0  0  0  0  0  0
   -0.7145   -5.3625    0.0000 C   0  0  0  0  0  0  0  0  0  0  0  0
    0.0000   -4.9500    0.0000 C   0  0  0  0  0  0  0  0  0  0  0  0
    0.7145   -5.3625    0.0000 N   0  0  0  0  0  0  0  0  0  0  0  0
    1.4289   -4.9500    0.0000 C   0  0  0  0  0  0  0  0  0  0  0  0
    0.7145   -6.1875    0.0000 C   0  0  0  0  0  0  0  0  0  0  0  0
   -2.1434   -6.1875    0.0000 C   0  0  0  0  0  0  0  0  0  0  0  0
   -2.8579   -6.6000    0.0000 C   0  0  0  0  0  0  0  0  0  0  0  0
   -5.7158   -6.6000    0.0000 C   0  0  0  0  0  0  0  0  0  0  0  0
   -5.7158   -7.4250    0.0000 C   0  0  0  0  0  0  0  0  0  0  0  0
   -6.4302   -7.8375    0.0000 C   0  0  0  0  0  0  0  0  0  0  0  0
   -7.1447   -7.4250    0.0000 C   0  0  0  0  0  0  0  0  0  0  0  0
   -7.1447   -6.6000    0.0000 C   0  0  0  0  0  0  0  0  0  0  0  0
   -6.4302   -6.1875    0.0000 C   0  0  0  0  0  0  0  0  0  0  0  0
  1  2  1  0  0  0  0
  2  3  1  0  0  0  0
  3  4  2  0  0  0  0
  3 24  1  0  0  0  0
  4  5  1  0  0  0  0
  4 12  1  0  0  0  0
  5  6  2  0  0  0  0
  5 11  1  0  0  0  0
  6  7  1  0  0  0  0
  7  8  2  0  0  0  0
  8  9  1  0  0  0  0
  8 10  1  0  0  0  0
 10 11  2  0  0  0  0
 12 13  2  0  0  0  0
 12 23  1  0  0  0  0
 13 14  1  0  0  0  0
 14 15  2  0  0  0  0
 15 16  1  0  0  0  0
 15 22  1  0  0  0  0
 16 17  1  0  0  0  0
 17 18  1  0  0  0  0
 18 19  1  0  0  0  0
 19 20  1  0  0  0  0
 19 21  1  0  0  0  0
 22 23  2  0  0  0  0
 24 25  2  0  0  0  0
 24 29  1  0  0  0  0
 25 26  1  0  0  0  0
 26 27  2  0  0  0  0
 27 28  1  0  0  0  0
 28 29  2  0  0  0  0
M  END
$$$$

 OpenBabel12191814062D

 28 30  0  0  0  0  0  0  0  0999 V2000
   -5.7158   -4.9500    0.0000 C   0  0  0  0  0  0  0  0  0  0  0  0
   -5.0013   -5.3625    0.0000 C   0  0  0  0  0  0  0  0  0  0  0  0
   -5.0013   -6.1875    0.0000 C   0  0  0  0  0  0  0  0  0  0  0  0
   -4.2868   -6.6000    0.0000 C   0  0  0  0  0  0  0  0  0  0  0  0
   -4.2868   -7.4250    0.0000 C   0  0  0  0  0  0  0  0  0  0  0  0
   -3.5724   -7.8375    0.0000 C   0  0  0  0  0  0  0  0  0  0  0  0
   -3.5724   -8.6625    0.0000 C   0  0  0  0  0  0  0  0  0  0  0  0
   -4.2868   -9.0750    0.0000 C   0  0  0  0  0  0  0  0  0  0  0  0
   -5.0013   -8.6625    0.0000 C   0  0  0  0  0  0  0  0  0  0  0  0
   -5.0013   -7.8375    0.0000 C   0  0  0  0  0  0  0  0  0  0  0  0
   -3.5724   -6.1875    0.0000 C   0  0  0  0  0  0  0  0  0  0  0  0
   -3.5724   -5.3625    0.0000 C   0  0  0  0  0  0  0  0  0  0  0  0
   -2.8579   -4.9500    0.0000 C   0  0  0  0  0  0  0  0  0  0  0  0
   -2.1434   -5.3625    0.0000 C   0  0  0  0  0  0  0  0  0  0  0  0
   -1.4289   -4.9500    0.0000 O   0  0  0  0  0  0  0  0  0  0  0  0
   -0.7145   -5.3625    0.0000 C   0  0  0  0  0  0  0  0  0  0  0  0
    0.0000   -4.9500    0.0000 C   0  0  0  0  0  0  0  0  0  0  0  0
    0.7145   -5.3625    0.0000 N   0  0  0  0  0  0  0  0  0  0  0  0
    1.4289   -4.9500    0.0000 C   0  0  0  0  0  0  0  0  0  0  0  0
    0.7145   -6.1875    0.0000 C   0  0  0  0  0  0  0  0  0  0  0  0
   -2.1434   -6.1875    0.0000 C   0  0  0  0  0  0  0  0  0  0  0  0
   -2.8579   -6.6000    0.0000 C   0  0  0  0  0  0  0  0  0  0  0  0
   -5.7158   -6.6000    0.0000 C   0  0  0  0  0  0  0  0  0  0  0  0
   -5.7158   -7.4250    0.0000 C   0  0  0  0  0  0  0  0  0  0  0  0
   -6.4302   -7.8375    0.0000 C   0  0  0  0  0  0  0  0  0  0  0  0
   -7.1447   -7.4250    0.0000 C   0  0  0  0  0  0  0  0  0  0  0  0
   -7.1447   -6.6000    0.0000 C   0  0  0  0  0  0  0  0  0  0  0  0
   -6.4302   -6.1875    0.0000 C   0  0  0  0  0  0  0  0  0  0  0  0
  1  2  1  0  0  0  0
  2  3  1  0  0  0  0
  3  4  2  0  0  0  0
  3 23  1  0  0  0  0
  4  5  1  0  0  0  0
  4 11  1  0  0  0  0
  5  6  2  0  0  0  0
  5 10  1  0  0  0  0
  6  7  1  0  0  0  0
  7  8  2  0  0  0  0
  8  9  1  0  0  0  0
  9 10  2  0  0  0  0
 11 12  2  0  0  0  0
 11 22  1  0  0  0  0
 12 13  1  0  0  0  0
 13 14  2  0  0  0  0
 14 15  1  0  0  0  0
 14 21  1  0  0  0  0
 15 16  1  0  0  0  0
 16 17  1  0  0  0  0
 17 18  1  0  0  0  0
 18 19  1  0  0  0  0
 18 20  1  0  0  0  0
 21 22  2  0  0  0  0
 23 24  2  0  0  0  0
 23 28  1  0  0  0  0
 24 25  1  0  0  0  0
 25 26  2  0  0  0  0
 26 27  1  0  0  0  0
 27 28  2  0  0  0  0
M  END
$$$$

 OpenBabel12191814062D

 20 21  0  0  0  0  0  0  0  0999 V2000
    2.1434   -1.2375    0.0000 C   0  0  0  0  0  0  0  0  0  0  0  0
    1.4289   -1.6500    0.0000 C   0  0  0  0  0  0  0  0  0  0  0  0
    0.7145   -1.2375    0.0000 C   0  0  0  0  0  0  0  0  0  0  0  0
    0.0000   -1.6500    0.0000 C   0  0  0  0  0  0  0  0  0  0  0  0
   -0.7145   -1.2375    0.0000 C   0  0  0  0  0  0  0  0  0  0  0  0
   -1.4289   -1.6500    0.0000 C   0  0  0  0  0  0  0  0  0  0  0  0
    0.0000   -2.4750    0.0000 C   0  0  0  0  0  0  0  0  0  0  0  0
    0.7145   -2.8875    0.0000 C   0  0  0  0  0  0  0  0  0  0  0  0
    0.7145   -3.7125    0.0000 C   0  0  0  0  0  0  0  0  0  0  0  0
    0.0000   -4.1250    0.0000 C   0  0  0  0  0  0  0  0  0  0  0  0
    0.0000   -4.9500    0.0000 O   0  0  0  0  0  0  0  0  0  0  0  0
   -0.7145   -3.7125    0.0000 C   0  0  0  0  0  0  0  0  0  0  0  0
   -0.7145   -2.8875    0.0000 C   0  0  0  0  0  0  0  0  0  0  0  0
    0.7145   -0.4125    0.0000 C   0  0  0  0  0  0  0  0  0  0  0  0
    0.0000    0.0000    0.0000 C   0  0  0  0  0  0  0  0  0  0  0  0
    0.0000    0.8250    0.0000 C   0  0  0  0  0  0  0  0  0  0  0  0
    0.7145    1.2375    0.0000 C   0  0  0  0  0  0  0  0  0  0  0  0
    0.7145    2.0625    0.0000 O   0  0  0  0  0  0  0  0  0  0  0  0
    1.4289    0.8250    0.0000 C   0  0  0  0  0  0  0  0  0  0  0  0
    1.4289   -0.0000    0.0000 C   0  0  0  0  0  0  0  0  0  0  0  0
  1  2  1  0  0  0  0
  2  3  1  0  0  0  0
  3  4  2  0  0  0  0
  3 14  1  0  0  0  0
  4  5  1  0  0  0  0
  4  7  1  0  0  0  0
  5  6  1  0  0  0  0
  7  8  2  0  0  0  0
  7 13  1  0  0  0  0
  8  9  1  0  0  0  0
  9 10  2  0  0  0  0
 10 11  1  0  0  0  0
 10 12  1  0  0  0  0
 12 13  2  0  0  0  0
 14 15  2  0  0  0  0
 14 20  1  0  0  0  0
 15 16  1  0  0  0  0
 16 17  2  0  0  0  0
 17 18  1  0  0  0  0
 17 19  1  0  0  0  0
 19 20  2  0  0  0  0
M  END
$$$$

 OpenBabel12191814062D

 28 30  0  0  0  0  0  0  0  0999 V2000
    2.5279   -4.1323    0.0000 C   0  0  0  0  0  0  0  0  0  0  0  0
    3.1599   -3.6020    0.0000 C   0  0  0  0  0  0  0  0  0  0  0  0
    3.7918   -4.1323    0.0000 C   0  0  0  0  0  0  0  0  0  0  0  0
    2.7474   -2.8875    0.0000 C   0  0  3  0  0  0  0  0  0  0  0  0
    2.0329   -2.4750    0.0000 C   0  0  0  0  0  0  0  0  0  0  0  0
    2.0329   -1.6500    0.0000 C   0  0  0  0  0  0  0  0  0  0  0  0
    1.3184   -1.2375    0.0000 Cl  0  0  0  0  0  0  0  0  0  0  0  0
    2.7474   -1.2375    0.0000 Cl  0  0  0  0  0  0  0  0  0  0  0  0
    3.5724   -2.8875    0.0000 C   0  0  3  0  0  0  0  0  0  0  0  0
    4.2868   -2.4750    0.0000 C   0  0  0  0  0  0  0  0  0  0  0  0
    5.0013   -2.8875    0.0000 O   0  0  0  0  0  0  0  0  0  0  0  0
    4.2868   -1.6500    0.0000 O   0  0  0  0  0  0  0  0  0  0  0  0
    5.0013   -1.2375    0.0000 C   0  0  3  0  0  0  0  0  0  0  0  0
    5.7158   -1.6500    0.0000 C   0  0  0  0  0  0  0  0  0  0  0  0
    6.4302   -2.0625    0.0000 N   0  0  0  0  0  0  0  0  0  0  0  0
    5.0013   -0.4125    0.0000 C   0  0  0  0  0  0  0  0  0  0  0  0
    4.2868    0.0000    0.0000 C   0  0  0  0  0  0  0  0  0  0  0  0
    4.2868    0.8250    0.0000 C   0  0  0  0  0  0  0  0  0  0  0  0
    5.0013    1.2375    0.0000 C   0  0  0  0  0  0  0  0  0  0  0  0
    5.7158    0.8250    0.0000 C   0  0  0  0  0  0  0  0  0  0  0  0
    6.4302    1.2375    0.0000 O   0  0  0  0  0  0  0  0  0  0  0  0
    7.1447    0.8250    0.0000 C   0  0  0  0  0  0  0  0  0  0  0  0
    7.8592    1.2375    0.0000 C   0  0  0  0  0  0  0  0  0  0  0  0
    8.5737    0.8250    0.0000 C   0  0  0  0  0  0  0  0  0  0  0  0
    8.5737    0.0000    0.0000 C   0  0  0  0  0  0  0  0  0  0  0  0
    7.8592   -0.4125    0.0000 C   0  0  0  0  0  0  0  0  0  0  0  0
    7.1447    0.0000    0.0000 C   0  0  0  0  0  0  0  0  0  0  0  0
    5.7158    0.0000    0.0000 C   0  0  0  0  0  0  0  0  0  0  0  0
  1  2  1  0  0  0  0
  2  3  1  0  0  0  0
  2  4  1  0  0  0  0
  2  9  1  0  0  0  0
  4  5  1  0  0  0  0
  4  9  1  0  0  0  0
  5  6  2  0  0  0  0
  6  7  1  0  0  0  0
  6  8  1  0  0  0  0
  9 10  1  0  0  0  0
 10 11  2  0  0  0  0
 10 12  1  0  0  0  0
 12 13  1  0  0  0  0
 13 14  1  0  0  0  0
 13 16  1  0  0  0  0
 14 15  3  0  0  0  0
 16 17  2  0  0  0  0
 16 28  1  0  0  0  0
 17 18  1  0  0  0  0
 18 19  2  0  0  0  0
 19 20  1  0  0  0  0
 20 21  1  0  0  0  0
 20 28  2  0  0  0  0
 21 22  1  0  0  0  0
 22 23  2  0  0  0  0
 22 27  1  0  0  0  0
 23 24  1  0  0  0  0
 24 25  2  0  0  0  0
 25 26  1  0  0  0  0
 26 27  2  0  0  0  0
M  END
$$$$

 OpenBabel12191814062D

 41 45  0  0  0  0  0  0  0  0999 V2000
    6.8522    1.4091    0.0000 C   0  0  0  0  0  0  0  0  0  0  0  0
    6.0770    1.1270    0.0000 C   0  0  0  0  0  0  0  0  0  0  0  0
    5.9337    1.9394    0.0000 C   0  0  0  0  0  0  0  0  0  0  0  0
    6.4895    0.4125    0.0000 C   0  0  3  0  0  0  0  0  0  0  0  0
    6.0770   -0.3020    0.0000 C   0  0  0  0  0  0  0  0  0  0  0  0
    5.2520   -0.3020    0.0000 C   0  0  0  0  0  0  0  0  0  0  0  0
    4.8395    0.4125    0.0000 C   0  0  3  0  0  0  0  0  0  0  0  0
    4.4270   -0.3020    0.0000 C   0  0  0  0  0  0  0  0  0  0  0  0
    5.2520    1.1270    0.0000 C   0  0  3  0  0  0  0  0  0  0  0  0
    4.8395    1.8414    0.0000 C   0  0  0  0  0  0  0  0  0  0  0  0
    4.0145    1.8414    0.0000 C   0  0  0  0  0  0  0  0  0  0  0  0
    3.6020    1.1270    0.0000 C   0  0  3  0  0  0  0  0  0  0  0  0
    3.1895    1.8414    0.0000 C   0  0  0  0  0  0  0  0  0  0  0  0
    4.0145    0.4125    0.0000 C   0  0  3  0  0  0  0  0  0  0  0  0
    3.6020   -0.3020    0.0000 C   0  0  0  0  0  0  0  0  0  0  0  0
    4.0145   -1.0164    0.0000 O   0  0  0  0  0  0  0  0  0  0  0  0
    2.7770   -0.3020    0.0000 C   0  0  0  0  0  0  0  0  0  0  0  0
    2.3645    0.4125    0.0000 C   0  0  0  0  0  0  0  0  0  0  0  0
    1.5395    0.4125    0.0000 C   0  0  3  0  0  0  0  0  0  0  0  0
    1.1270   -0.3020    0.0000 C   0  0  0  0  0  0  0  0  0  0  0  0
    0.3020   -0.3020    0.0000 C   0  0  3  0  0  0  0  0  0  0  0  0
    0.4452   -1.1144    0.0000 C   0  0  0  0  0  0  0  0  0  0  0  0
   -0.1105    0.4125    0.0000 C   0  0  0  0  0  0  0  0  0  0  0  0
    0.3020    1.1270    0.0000 C   0  0  0  0  0  0  0  0  0  0  0  0
    1.1270    1.1270    0.0000 C   0  0  3  0  0  0  0  0  0  0  0  0
    0.7145    1.8414    0.0000 C   0  0  0  0  0  0  0  0  0  0  0  0
    1.5395    1.8414    0.0000 C   0  0  0  0  0  0  0  0  0  0  0  0
    2.3645    1.8414    0.0000 C   0  0  0  0  0  0  0  0  0  0  0  0
    2.7770    1.1270    0.0000 C   0  0  3  0  0  0  0  0  0  0  0  0
    2.6907    1.9475    0.0000 C   0  0  0  0  0  0  0  0  0  0  0  0
   -0.4733   -0.5841    0.0000 C   0  0  0  0  0  0  0  0  0  0  0  0
   -0.6165   -1.3966    0.0000 O   0  0  0  0  0  0  0  0  0  0  0  0
   -1.1053   -0.0538    0.0000 O   0  0  0  0  0  0  0  0  0  0  0  0
    7.3145    0.4125    0.0000 O   0  0  0  0  0  0  0  0  0  0  0  0
    7.7270    1.1270    0.0000 C   0  0  0  0  0  0  0  0  0  0  0  0
    7.3145    1.8414    0.0000 O   0  0  0  0  0  0  0  0  0  0  0  0
    8.5520    1.1270    0.0000 C   0  0  0  0  0  0  0  0  0  0  0  0
    8.9645    1.8414    0.0000 C   0  0  0  0  0  0  0  0  0  0  0  0
    9.7895    1.8414    0.0000 C   0  0  0  0  0  0  0  0  0  0  0  0
   10.2020    2.5559    0.0000 O   0  0  0  0  0  0  0  0  0  0  0  0
   10.2020    1.1270    0.0000 O   0  0  0  0  0  0  0  0  0  0  0  0
  1  2  1  0  0  0  0
  2  3  1  0  0  0  0
  2  4  1  0  0  0  0
  2  9  1  0  0  0  0
  4  5  1  0  0  0  0
  4 34  1  0  0  0  0
  5  6  1  0  0  0  0
  6  7  1  0  0  0  0
  7  8  1  0  0  0  0
  7  9  1  0  0  0  0
  7 14  1  0  0  0  0
  9 10  1  0  0  0  0
 10 11  1  0  0  0  0
 11 12  1  0  0  0  0
 12 13  1  0  0  0  0
 12 14  1  0  0  0  0
 12 29  1  0  0  0  0
 14 15  1  0  0  0  0
 15 16  2  0  0  0  0
 15 17  1  0  0  0  0
 17 18  2  0  0  0  0
 18 19  1  0  0  0  0
 18 29  1  0  0  0  0
 19 20  1  0  0  0  0
 19 25  1  0  0  0  0
 20 21  1  0  0  0  0
 21 22  1  0  0  0  0
 21 23  1  0  0  0  0
 21 31  1  0  0  0  0
 23 24  1  0  0  0  0
 24 25  1  0  0  0  0
 25 26  1  0  0  0  0
 25 27  1  0  0  0  0
 27 28  1  0  0  0  0
 28 29  1  0  0  0  0
 29 30  1  0  0  0  0
 31 32  1  0  0  0  0
 31 33  2  0  0  0  0
 34 35  1  0  0  0  0
 35 36  2  0  0  0  0
 35 37  1  0  0  0  0
 37 38  1  0  0  0  0
 38 39  1  0  0  0  0
 39 40  1  0  0  0  0
 39 41  2  0  0  0  0
M  END
$$$$

 OpenBabel12191814062D

 35 37  0  0  0  0  0  0  0  0999 V2000
   -0.8986   -1.8430    0.0000 C   0  0  0  0  0  0  0  0  0  0  0  0
   -1.4289   -2.4750    0.0000 C   0  0  0  0  0  0  0  0  0  0  0  0
   -1.9592   -1.8430    0.0000 C   0  0  0  0  0  0  0  0  0  0  0  0
   -0.7145   -2.8875    0.0000 C   0  0  0  0  0  0  0  0  0  0  0  0
   -0.7145   -3.7125    0.0000 N   0  0  0  0  0  0  0  0  0  0  0  0
   -1.4289   -4.1250    0.0000 C   0  0  0  0  0  0  0  0  0  0  0  0
   -2.1434   -3.7125    0.0000 N   0  0  0  0  0  0  0  0  0  0  0  0
   -2.1434   -2.8875    0.0000 C   0  0  0  0  0  0  0  0  0  0  0  0
   -1.4289   -4.9500    0.0000 N   0  0  0  0  0  0  0  0  0  0  0  0
   -2.1434   -5.3625    0.0000 N   0  0  0  0  0  0  0  0  0  0  0  0
   -2.1434   -6.1875    0.0000 C   0  0  0  0  0  0  0  0  0  0  0  0
   -2.8579   -6.6000    0.0000 C   0  0  0  0  0  0  0  0  0  0  0  0
   -2.8579   -7.4250    0.0000 C   0  0  0  0  0  0  0  0  0  0  0  0
   -3.5724   -7.8375    0.0000 C   0  0  0  0  0  0  0  0  0  0  0  0
   -3.5724   -8.6625    0.0000 C   0  0  0  0  0  0  0  0  0  0  0  0
   -4.2868   -9.0750    0.0000 C   0  0  0  0  0  0  0  0  0  0  0  0
   -5.0013   -8.6625    0.0000 C   0  0  0  0  0  0  0  0  0  0  0  0
   -5.0013   -7.8375    0.0000 C   0  0  0  0  0  0  0  0  0  0  0  0
   -4.2868   -7.4250    0.0000 C   0  0  0  0  0  0  0  0  0  0  0  0
   -5.7158   -9.0750    0.0000 C   0  0  0  0  0  0  0  0  0  0  0  0
   -6.4302   -9.4875    0.0000 F   0  0  0  0  0  0  0  0  0  0  0  0
   -5.3033   -9.7895    0.0000 F   0  0  0  0  0  0  0  0  0  0  0  0
   -6.1283   -8.3605    0.0000 F   0  0  0  0  0  0  0  0  0  0  0  0
   -1.4289   -6.6000    0.0000 C   0  0  0  0  0  0  0  0  0  0  0  0
   -0.7145   -6.1875    0.0000 C   0  0  0  0  0  0  0  0  0  0  0  0
   -0.0000   -6.6000    0.0000 C   0  0  0  0  0  0  0  0  0  0  0  0
    0.7145   -6.1875    0.0000 C   0  0  0  0  0  0  0  0  0  0  0  0
    1.4289   -6.6000    0.0000 C   0  0  0  0  0  0  0  0  0  0  0  0
    1.4289   -7.4250    0.0000 C   0  0  0  0  0  0  0  0  0  0  0  0
    0.7145   -7.8375    0.0000 C   0  0  0  0  0  0  0  0  0  0  0  0
   -0.0000   -7.4250    0.0000 C   0  0  0  0  0  0  0  0  0  0  0  0
    2.1434   -7.8375    0.0000 C   0  0  0  0  0  0  0  0  0  0  0  0
    2.8579   -8.2500    0.0000 F   0  0  0  0  0  0  0  0  0  0  0  0
    1.7309   -8.5520    0.0000 F   0  0  0  0  0  0  0  0  0  0  0  0
    2.5559   -7.1230    0.0000 F   0  0  0  0  0  0  0  0  0  0  0  0
  1  2  1  0  0  0  0
  2  3  1  0  0  0  0
  2  4  1  0  0  0  0
  2  8  1  0  0  0  0
  4  5  1  0  0  0  0
  5  6  1  0  0  0  0
  6  7  1  0  0  0  0
  6  9  2  0  0  0  0
  7  8  1  0  0  0  0
  9 10  1  0  0  0  0
 10 11  2  0  0  0  0
 11 12  1  0  0  0  0
 11 24  1  0  0  0  0
 12 13  2  0  0  0  0
 13 14  1  0  0  0  0
 14 15  2  0  0  0  0
 14 19  1  0  0  0  0
 15 16  1  0  0  0  0
 16 17  2  0  0  0  0
 17 18  1  0  0  0  0
 17 20  1  0  0  0  0
 18 19  2  0  0  0  0
 20 21  1  0  0  0  0
 20 22  1  0  0  0  0
 20 23  1  0  0  0  0
 24 25  2  0  0  0  0
 25 26  1  0  0  0  0
 26 27  2  0  0  0  0
 26 31  1  0  0  0  0
 27 28  1  0  0  0  0
 28 29  2  0  0  0  0
 29 30  1  0  0  0  0
 29 32  1  0  0  0  0
 30 31  2  0  0  0  0
 32 33  1  0  0  0  0
 32 34  1  0  0  0  0
 32 35  1  0  0  0  0
M  END
$$$$

 OpenBabel12191814062D

 35 37  0  0  0  0  0  0  0  0999 V2000
   -0.8986   -1.8430    0.0000 C   0  0  0  0  0  0  0  0  0  0  0  0
   -1.4289   -2.4750    0.0000 C   0  0  0  0  0  0  0  0  0  0  0  0
   -1.9592   -1.8430    0.0000 C   0  0  0  0  0  0  0  0  0  0  0  0
   -0.7145   -2.8875    0.0000 C   0  0  0  0  0  0  0  0  0  0  0  0
   -0.7145   -3.7125    0.0000 N   0  0  0  0  0  0  0  0  0  0  0  0
   -1.4289   -4.1250    0.0000 C   0  0  0  0  0  0  0  0  0  0  0  0
   -1.4289   -4.9500    0.0000 N   0  0  0  0  0  0  0  0  0  0  0  0
   -2.1434   -5.3625    0.0000 N   0  0  0  0  0  0  0  0  0  0  0  0
   -2.1434   -6.1875    0.0000 C   0  0  0  0  0  0  0  0  0  0  0  0
   -2.8579   -6.6000    0.0000 C   0  0  0  0  0  0  0  0  0  0  0  0
   -2.8579   -7.4250    0.0000 C   0  0  0  0  0  0  0  0  0  0  0  0
   -3.5724   -7.8375    0.0000 C   0  0  0  0  0  0  0  0  0  0  0  0
   -3.5724   -8.6625    0.0000 C   0  0  0  0  0  0  0  0  0  0  0  0
   -4.2868   -9.0750    0.0000 C   0  0  0  0  0  0  0  0  0  0  0  0
   -5.0013   -8.6625    0.0000 C   0  0  0  0  0  0  0  0  0  0  0  0
   -5.0013   -7.8375    0.0000 C   0  0  0  0  0  0  0  0  0  0  0  0
   -4.2868   -7.4250    0.0000 C   0  0  0  0  0  0  0  0  0  0  0  0
   -5.7158   -9.0750    0.0000 C   0  0  0  0  0  0  0  0  0  0  0  0
   -6.4302   -9.4875    0.0000 F   0  0  0  0  0  0  0  0  0  0  0  0
   -5.3033   -9.7895    0.0000 F   0  0  0  0  0  0  0  0  0  0  0  0
   -6.1283   -8.3605    0.0000 F   0  0  0  0  0  0  0  0  0  0  0  0
   -1.4289   -6.6000    0.0000 C   0  0  0  0  0  0  0  0  0  0  0  0
   -0.7145   -6.1875    0.0000 C   0  0  0  0  0  0  0  0  0  0  0  0
   -0.0000   -6.6000    0.0000 C   0  0  0  0  0  0  0  0  0  0  0  0
    0.7145   -6.1875    0.0000 C   0  0  0  0  0  0  0  0  0  0  0  0
    1.4289   -6.6000    0.0000 C   0  0  0  0  0  0  0  0  0  0  0  0
    1.4289   -7.4250    0.0000 C   0  0  0  0  0  0  0  0  0  0  0  0
    0.7145   -7.8375    0.0000 C   0  0  0  0  0  0  0  0  0  0  0  0
   -0.0000   -7.4250    0.0000 C   0  0  0  0  0  0  0  0  0  0  0  0
    2.1434   -7.8375    0.0000 C   0  0  0  0  0  0  0  0  0  0  0  0
    2.8579   -8.2500    0.0000 F   0  0  0  0  0  0  0  0  0  0  0  0
    1.7309   -8.5520    0.0000 F   0  0  0  0  0  0  0  0  0  0  0  0
    2.5559   -7.1230    0.0000 F   0  0  0  0  0  0  0  0  0  0  0  0
   -2.1434   -3.7125    0.0000 N   0  0  0  0  0  0  0  0  0  0  0  0
   -2.1434   -2.8875    0.0000 C   0  0  0  0  0  0  0  0  0  0  0  0
  1  2  1  0  0  0  0
  2  3  1  0  0  0  0
  2  4  1  0  0  0  0
  2 35  1  0  0  0  0
  4  5  1  0  0  0  0
  5  6  1  0  0  0  0
  6  7  1  0  0  0  0
  6 34  2  0  0  0  0
  7  8  1  0  0  0  0
  8  9  2  0  0  0  0
  9 10  1  0  0  0  0
  9 22  1  0  0  0  0
 10 11  2  0  0  0  0
 11 12  1  0  0  0  0
 12 13  2  0  0  0  0
 12 17  1  0  0  0  0
 13 14  1  0  0  0  0
 14 15  2  0  0  0  0
 15 16  1  0  0  0  0
 15 18  1  0  0  0  0
 16 17  2  0  0  0  0
 18 19  1  0  0  0  0
 18 20  1  0  0  0  0
 18 21  1  0  0  0  0
 22 23  2  0  0  0  0
 23 24  1  0  0  0  0
 24 25  2  0  0  0  0
 24 29  1  0  0  0  0
 25 26  1  0  0  0  0
 26 27  2  0  0  0  0
 27 28  1  0  0  0  0
 27 30  1  0  0  0  0
 28 29  2  0  0  0  0
 30 31  1  0  0  0  0
 30 32  1  0  0  0  0
 30 33  1  0  0  0  0
 34 35  1  0  0  0  0
M  END
$$$$

 OpenBabel12191814062D

 28 31  0  0  0  0  0  0  0  0999 V2000
    0.4323    0.3627    0.0000 C   0  0  0  0  0  0  0  0  0  0  0  0
    0.7145   -0.4125    0.0000 C   0  0  0  0  0  0  0  0  0  0  0  0
   -0.0980   -0.5558    0.0000 C   0  0  0  0  0  0  0  0  0  0  0  0
    1.4289    0.0000    0.0000 O   0  0  0  0  0  0  0  0  0  0  0  0
    2.1434   -0.4125    0.0000 C   0  0  0  0  0  0  0  0  0  0  0  0
    2.8579    0.0000    0.0000 C   0  0  0  0  0  0  0  0  0  0  0  0
    3.5724   -0.4125    0.0000 C   0  0  0  0  0  0  0  0  0  0  0  0
    3.5724   -1.2375    0.0000 C   0  0  0  0  0  0  0  0  0  0  0  0
    2.8579   -1.6500    0.0000 C   0  0  0  0  0  0  0  0  0  0  0  0
    2.1434   -1.2375    0.0000 C   0  0  0  0  0  0  0  0  0  0  0  0
    1.4289   -1.6500    0.0000 C   0  0  3  0  0  0  0  0  0  0  0  0
    0.7145   -1.2375    0.0000 C   0  0  3  0  0  0  0  0  0  0  0  0
    0.0000   -1.6500    0.0000 O   0  0  0  0  0  0  0  0  0  0  0  0
    1.4289   -2.4750    0.0000 N   0  0  0  0  0  0  0  0  0  0  0  0
    2.1434   -2.8875    0.0000 C   0  0  0  0  0  0  0  0  0  0  0  0
    2.1434   -3.7125    0.0000 C   0  0  0  0  0  0  0  0  0  0  0  0
    1.4289   -4.1250    0.0000 N   0  0  0  0  0  0  0  0  0  0  0  0
    1.4289   -4.9500    0.0000 C   0  0  0  0  0  0  0  0  0  0  0  0
    0.7145   -5.3625    0.0000 C   0  0  0  0  0  0  0  0  0  0  0  0
    0.7145   -6.1875    0.0000 C   0  0  0  0  0  0  0  0  0  0  0  0
    0.0000   -6.6000    0.0000 C   0  0  0  0  0  0  0  0  0  0  0  0
   -0.7145   -6.1875    0.0000 C   0  0  0  0  0  0  0  0  0  0  0  0
   -0.7145   -5.3625    0.0000 C   0  0  0  0  0  0  0  0  0  0  0  0
    0.0000   -4.9500    0.0000 C   0  0  0  0  0  0  0  0  0  0  0  0
    0.7145   -3.7125    0.0000 C   0  0  0  0  0  0  0  0  0  0  0  0
    0.7145   -2.8875    0.0000 C   0  0  0  0  0  0  0  0  0  0  0  0
    4.2868   -1.6500    0.0000 C   0  0  0  0  0  0  0  0  0  0  0  0
    5.0013   -2.0625    0.0000 N   0  0  0  0  0  0  0  0  0  0  0  0
  1  2  1  0  0  0  0
  2  3  1  0  0  0  0
  2  4  1  0  0  0  0
  2 12  1  0  0  0  0
  4  5  1  0  0  0  0
  5  6  2  0  0  0  0
  5 10  1  0  0  0  0
  6  7  1  0  0  0  0
  7  8  2  0  0  0  0
  8  9  1  0  0  0  0
  8 27  1  0  0  0  0
  9 10  2  0  0  0  0
 10 11  1  0  0  0  0
 11 12  1  0  0  0  0
 11 14  1  0  0  0  0
 12 13  1  0  0  0  0
 14 15  1  0  0  0  0
 14 26  1  0  0  0  0
 15 16  1  0  0  0  0
 16 17  1  0  0  0  0
 17 18  1  0  0  0  0
 17 25  1  0  0  0  0
 18 19  1  0  0  0  0
 19 20  2  0  0  0  0
 19 24  1  0  0  0  0
 20 21  1  0  0  0  0
 21 22  2  0  0  0  0
 22 23  1  0  0  0  0
 23 24  2  0  0  0  0
 25 26  1  0  0  0  0
 27 28  3  0  0  0  0
M  END
$$$$

 OpenBabel12191814062D

 42 43  0  0  0  0  0  0  0  0999 V2000
    4.2489    0.9795    0.0000 C   0  0  0  0  0  0  0  0  0  0  0  0
    4.2624    0.1546    0.0000 C   0  0  3  0  0  0  0  0  0  0  0  0
    4.9835   -0.2461    0.0000 C   0  0  0  0  0  0  0  0  0  0  0  0
    5.8084   -0.2326    0.0000 C   0  0  0  0  0  0  0  0  0  0  0  0
    6.2325   -0.9402    0.0000 C   0  0  0  0  0  0  0  0  0  0  0  0
    6.7524   -0.2996    0.0000 C   0  0  0  0  0  0  0  0  0  0  0  0
    7.0123   -1.2097    0.0000 C   0  0  0  0  0  0  0  0  0  0  0  0
    6.2461   -1.7651    0.0000 C   0  0  0  0  0  0  0  0  0  0  0  0
    7.0463   -1.9656    0.0000 O   0  0  0  0  0  0  0  0  0  0  0  0
    5.8453   -2.4862    0.0000 C   0  0  0  0  0  0  0  0  0  0  0  0
    5.1377   -2.9104    0.0000 C   0  0  3  0  0  0  0  0  0  0  0  0
    5.3642   -3.7037    0.0000 O   0  0  0  0  0  0  0  0  0  0  0  0
    6.1645   -3.9041    0.0000 C   0  0  0  0  0  0  0  0  0  0  0  0
    6.7383   -3.3113    0.0000 C   0  0  0  0  0  0  0  0  0  0  0  0
    6.3911   -4.6974    0.0000 O   0  0  0  0  0  0  0  0  0  0  0  0
    4.3128   -2.9239    0.0000 C   0  0  0  0  0  0  0  0  0  0  0  0
    4.1124   -3.7242    0.0000 C   0  0  0  0  0  0  0  0  0  0  0  0
    3.5917   -2.5232    0.0000 C   0  0  3  0  0  0  0  0  0  0  0  0
    3.0179   -3.1160    0.0000 O   0  0  0  0  0  0  0  0  0  0  0  0
    3.2445   -3.9093    0.0000 C   0  0  0  0  0  0  0  0  0  0  0  0
    4.0448   -4.1097    0.0000 C   0  0  0  0  0  0  0  0  0  0  0  0
    2.6708   -4.5021    0.0000 O   0  0  0  0  0  0  0  0  0  0  0  0
    3.1675   -1.8156    0.0000 C   0  0  3  0  0  0  0  0  0  0  0  0
    2.3872   -2.0833    0.0000 C   0  0  3  0  0  0  0  0  0  0  0  0
    2.1451   -2.8720    0.0000 O   0  0  0  0  0  0  0  0  0  0  0  0
    1.3411   -3.0567    0.0000 C   0  0  0  0  0  0  0  0  0  0  0  0
    1.0990   -3.8454    0.0000 C   0  0  0  0  0  0  0  0  0  0  0  0
    0.7791   -2.4528    0.0000 O   0  0  0  0  0  0  0  0  0  0  0  0
    1.8914   -1.4239    0.0000 C   0  0  3  0  0  0  0  0  0  0  0  0
    1.2874   -1.9859    0.0000 C   0  0  0  0  0  0  0  0  0  0  0  0
    2.3653   -0.7486    0.0000 C   0  0  0  0  0  0  0  0  0  0  0  0
    3.1540   -0.9907    0.0000 C   0  0  3  0  0  0  0  0  0  0  0  0
    2.8458   -0.2254    0.0000 O   0  0  0  0  0  0  0  0  0  0  0  0
    2.0289   -0.1097    0.0000 C   0  0  0  0  0  0  0  0  0  0  0  0
    1.5203   -0.7593    0.0000 C   0  0  0  0  0  0  0  0  0  0  0  0
    1.7207    0.6555    0.0000 O   0  0  0  0  0  0  0  0  0  0  0  0
    3.5547   -0.2695    0.0000 C   0  0  0  0  0  0  0  0  0  0  0  0
    2.9619    0.3042    0.0000 O   0  0  0  0  0  0  0  0  0  0  0  0
    1.2693   -0.8820    0.0000 O   0  0  0  0  0  0  0  0  0  0  0  0
    0.4890   -1.1498    0.0000 C   0  0  0  0  0  0  0  0  0  0  0  0
    0.3307   -1.9594    0.0000 C   0  0  0  0  0  0  0  0  0  0  0  0
   -0.1331   -0.6078    0.0000 O   0  0  0  0  0  0  0  0  0  0  0  0
  1  2  1  0  0  0  0
  2  3  1  0  0  0  0
  2 37  1  0  0  0  0
  3  4  2  0  0  0  0
  4  5  1  0  0  0  0
  5  6  1  0  0  0  0
  5  7  1  0  0  0  0
  5  8  1  0  0  0  0
  8  9  2  0  0  0  0
  8 10  1  0  0  0  0
 10 11  1  0  0  0  0
 11 12  1  0  0  0  0
 11 16  1  0  0  0  0
 12 13  1  0  0  0  0
 13 14  1  0  0  0  0
 13 15  2  0  0  0  0
 16 17  2  0  0  0  0
 16 18  1  0  0  0  0
 18 19  1  0  0  0  0
 18 23  1  0  0  0  0
 19 20  1  0  0  0  0
 20 21  1  0  0  0  0
 20 22  2  0  0  0  0
 23 24  1  0  0  0  0
 23 32  1  0  0  0  0
 24 25  1  0  0  0  0
 24 29  1  0  0  0  0
 25 26  1  0  0  0  0
 26 27  1  0  0  0  0
 26 28  2  0  0  0  0
 29 30  1  0  0  0  0
 29 31  1  0  0  0  0
 29 39  1  0  0  0  0
 31 32  1  0  0  0  0
 32 33  1  0  0  0  0
 32 37  1  0  0  0  0
 33 34  1  0  0  0  0
 34 35  1  0  0  0  0
 34 36  2  0  0  0  0
 37 38  2  0  0  0  0
 39 40  1  0  0  0  0
 40 41  1  0  0  0  0
 40 42  2  0  0  0  0
M  END
$$$$

 OpenBabel12191814062D

 45 46  0  0  0  0  0  0  0  0999 V2000
    4.2489    0.9795    0.0000 C   0  0  0  0  0  0  0  0  0  0  0  0
    4.2624    0.1546    0.0000 C   0  0  3  0  0  0  0  0  0  0  0  0
    4.9835   -0.2461    0.0000 C   0  0  0  0  0  0  0  0  0  0  0  0
    5.8084   -0.2326    0.0000 C   0  0  0  0  0  0  0  0  0  0  0  0
    6.2325   -0.9402    0.0000 C   0  0  0  0  0  0  0  0  0  0  0  0
    7.0123   -1.2097    0.0000 C   0  0  0  0  0  0  0  0  0  0  0  0
    6.7524   -0.2996    0.0000 C   0  0  0  0  0  0  0  0  0  0  0  0
    6.2461   -1.7651    0.0000 C   0  0  3  0  0  0  0  0  0  0  0  0
    5.8453   -2.4862    0.0000 C   0  0  0  0  0  0  0  0  0  0  0  0
    5.1377   -2.9104    0.0000 C   0  0  3  0  0  0  0  0  0  0  0  0
    5.3642   -3.7037    0.0000 O   0  0  0  0  0  0  0  0  0  0  0  0
    6.1645   -3.9041    0.0000 C   0  0  0  0  0  0  0  0  0  0  0  0
    6.7383   -3.3113    0.0000 C   0  0  0  0  0  0  0  0  0  0  0  0
    6.3911   -4.6974    0.0000 O   0  0  0  0  0  0  0  0  0  0  0  0
    4.3128   -2.9239    0.0000 C   0  0  0  0  0  0  0  0  0  0  0  0
    4.1124   -3.7242    0.0000 C   0  0  0  0  0  0  0  0  0  0  0  0
    3.5917   -2.5232    0.0000 C   0  0  3  0  0  0  0  0  0  0  0  0
    3.0179   -3.1160    0.0000 O   0  0  0  0  0  0  0  0  0  0  0  0
    3.2445   -3.9093    0.0000 C   0  0  0  0  0  0  0  0  0  0  0  0
    4.0448   -4.1097    0.0000 C   0  0  0  0  0  0  0  0  0  0  0  0
    2.6708   -4.5021    0.0000 O   0  0  0  0  0  0  0  0  0  0  0  0
    3.1675   -1.8156    0.0000 C   0  0  3  0  0  0  0  0  0  0  0  0
    2.3872   -2.0833    0.0000 C   0  0  3  0  0  0  0  0  0  0  0  0
    2.1451   -2.8720    0.0000 O   0  0  0  0  0  0  0  0  0  0  0  0
    1.3411   -3.0567    0.0000 C   0  0  0  0  0  0  0  0  0  0  0  0
    1.0990   -3.8454    0.0000 C   0  0  0  0  0  0  0  0  0  0  0  0
    0.7791   -2.4528    0.0000 O   0  0  0  0  0  0  0  0  0  0  0  0
    1.8914   -1.4239    0.0000 C   0  0  3  0  0  0  0  0  0  0  0  0
    1.2874   -1.9859    0.0000 C   0  0  0  0  0  0  0  0  0  0  0  0
    2.3653   -0.7486    0.0000 C   0  0  0  0  0  0  0  0  0  0  0  0
    3.1540   -0.9907    0.0000 C   0  0  3  0  0  0  0  0  0  0  0  0
    2.8458   -0.2254    0.0000 O   0  0  0  0  0  0  0  0  0  0  0  0
    2.0289   -0.1097    0.0000 C   0  0  0  0  0  0  0  0  0  0  0  0
    1.5203   -0.7593    0.0000 C   0  0  0  0  0  0  0  0  0  0  0  0
    1.7207    0.6555    0.0000 O   0  0  0  0  0  0  0  0  0  0  0  0
    3.5547   -0.2695    0.0000 C   0  0  0  0  0  0  0  0  0  0  0  0
    2.9619    0.3042    0.0000 O   0  0  0  0  0  0  0  0  0  0  0  0
    1.2693   -0.8820    0.0000 O   0  0  0  0  0  0  0  0  0  0  0  0
    0.4890   -1.1498    0.0000 C   0  0  0  0  0  0  0  0  0  0  0  0
   -0.1331   -0.6078    0.0000 C   0  0  0  0  0  0  0  0  0  0  0  0
    0.3307   -1.9594    0.0000 O   0  0  0  0  0  0  0  0  0  0  0  0
    7.0463   -1.9656    0.0000 O   0  0  0  0  0  0  0  0  0  0  0  0
    7.2729   -2.7588    0.0000 C   0  0  0  0  0  0  0  0  0  0  0  0
    8.0732   -2.9593    0.0000 C   0  0  0  0  0  0  0  0  0  0  0  0
    7.1572   -3.5757    0.0000 O   0  0  0  0  0  0  0  0  0  0  0  0
  1  2  1  0  0  0  0
  2  3  1  0  0  0  0
  2 36  1  0  0  0  0
  3  4  2  0  0  0  0
  4  5  1  0  0  0  0
  5  6  1  0  0  0  0
  5  7  1  0  0  0  0
  5  8  1  0  0  0  0
  8  9  1  0  0  0  0
  8 42  1  0  0  0  0
  9 10  1  0  0  0  0
 10 11  1  0  0  0  0
 10 15  1  0  0  0  0
 11 12  1  0  0  0  0
 12 13  1  0  0  0  0
 12 14  2  0  0  0  0
 15 16  2  0  0  0  0
 15 17  1  0  0  0  0
 17 18  1  0  0  0  0
 17 22  1  0  0  0  0
 18 19  1  0  0  0  0
 19 20  1  0  0  0  0
 19 21  2  0  0  0  0
 22 23  1  0  0  0  0
 22 31  1  0  0  0  0
 23 24  1  0  0  0  0
 23 28  1  0  0  0  0
 24 25  1  0  0  0  0
 25 26  1  0  0  0  0
 25 27  2  0  0  0  0
 28 29  1  0  0  0  0
 28 30  1  0  0  0  0
 28 38  1  0  0  0  0
 30 31  1  0  0  0  0
 31 32  1  0  0  0  0
 31 36  1  0  0  0  0
 32 33  1  0  0  0  0
 33 34  1  0  0  0  0
 33 35  2  0  0  0  0
 36 37  2  0  0  0  0
 38 39  1  0  0  0  0
 39 40  1  0  0  0  0
 39 41  2  0  0  0  0
 42 43  1  0  0  0  0
 43 44  1  0  0  0  0
 43 45  2  0  0  0  0
M  END
$$$$

 OpenBabel12191814062D

 56 59  0  0  0  0  0  0  0  0999 V2000
    4.2489    0.9795    0.0000 C   0  0  0  0  0  0  0  0  0  0  0  0
    4.2624    0.1546    0.0000 C   0  0  3  0  0  0  0  0  0  0  0  0
    4.9835   -0.2461    0.0000 C   0  0  0  0  0  0  0  0  0  0  0  0
    5.8084   -0.2326    0.0000 C   0  0  0  0  0  0  0  0  0  0  0  0
    6.2325   -0.9402    0.0000 C   0  0  0  0  0  0  0  0  0  0  0  0
    7.0123   -1.2097    0.0000 C   0  0  0  0  0  0  0  0  0  0  0  0
    6.7524   -0.2996    0.0000 C   0  0  0  0  0  0  0  0  0  0  0  0
    6.2461   -1.7651    0.0000 C   0  0  3  0  0  0  0  0  0  0  0  0
    7.0463   -1.9656    0.0000 O   0  0  0  0  0  0  0  0  0  0  0  0
    7.2729   -2.7588    0.0000 C   0  0  0  0  0  0  0  0  0  0  0  0
    6.6992   -3.3517    0.0000 O   0  0  0  0  0  0  0  0  0  0  0  0
    8.0732   -2.9593    0.0000 C   0  0  0  0  0  0  0  0  0  0  0  0
    8.2997   -3.7526    0.0000 C   0  0  0  0  0  0  0  0  0  0  0  0
    9.1000   -3.9530    0.0000 C   0  0  0  0  0  0  0  0  0  0  0  0
    9.6737   -3.3602    0.0000 C   0  0  0  0  0  0  0  0  0  0  0  0
    9.4472   -2.5669    0.0000 N   0  0  0  0  0  0  0  0  0  0  0  0
    8.6469   -2.3664    0.0000 C   0  0  0  0  0  0  0  0  0  0  0  0
    5.8453   -2.4862    0.0000 C   0  0  3  0  0  0  0  0  0  0  0  0
    6.4382   -3.0600    0.0000 O   0  0  0  0  0  0  0  0  0  0  0  0
    5.1377   -2.9104    0.0000 C   0  0  3  0  0  0  0  0  0  0  0  0
    5.3642   -3.7037    0.0000 O   0  0  0  0  0  0  0  0  0  0  0  0
    6.1645   -3.9041    0.0000 C   0  0  0  0  0  0  0  0  0  0  0  0
    6.9771   -3.7617    0.0000 C   0  0  0  0  0  0  0  0  0  0  0  0
    6.3911   -4.6974    0.0000 O   0  0  0  0  0  0  0  0  0  0  0  0
    4.3128   -2.9239    0.0000 C   0  0  0  0  0  0  0  0  0  0  0  0
    4.1124   -3.7242    0.0000 C   0  0  0  0  0  0  0  0  0  0  0  0
    3.5917   -2.5232    0.0000 C   0  0  3  0  0  0  0  0  0  0  0  0
    3.0179   -3.1160    0.0000 O   0  0  0  0  0  0  0  0  0  0  0  0
    3.2445   -3.9093    0.0000 C   0  0  0  0  0  0  0  0  0  0  0  0
    2.6708   -4.5021    0.0000 C   0  0  0  0  0  0  0  0  0  0  0  0
    4.0448   -4.1097    0.0000 O   0  0  0  0  0  0  0  0  0  0  0  0
    3.1675   -1.8156    0.0000 C   0  0  3  0  0  0  0  0  0  0  0  0
    2.3872   -2.0833    0.0000 C   0  0  3  0  0  0  0  0  0  0  0  0
    2.1451   -2.8720    0.0000 O   0  0  0  0  0  0  0  0  0  0  0  0
    1.3411   -3.0567    0.0000 C   0  0  0  0  0  0  0  0  0  0  0  0
    0.7791   -2.4528    0.0000 O   0  0  0  0  0  0  0  0  0  0  0  0
    1.0990   -3.8454    0.0000 C   0  0  0  0  0  0  0  0  0  0  0  0
    1.6610   -4.4494    0.0000 C   0  0  0  0  0  0  0  0  0  0  0  0
    1.4190   -5.2381    0.0000 C   0  0  0  0  0  0  0  0  0  0  0  0
    0.6149   -5.4228    0.0000 C   0  0  0  0  0  0  0  0  0  0  0  0
    0.0529   -4.8188    0.0000 C   0  0  0  0  0  0  0  0  0  0  0  0
    0.2950   -4.0301    0.0000 C   0  0  0  0  0  0  0  0  0  0  0  0
    1.8914   -1.4239    0.0000 C   0  0  3  0  0  0  0  0  0  0  0  0
    1.2874   -1.9859    0.0000 C   0  0  0  0  0  0  0  0  0  0  0  0
    2.3653   -0.7486    0.0000 C   0  0  0  0  0  0  0  0  0  0  0  0
    3.1540   -0.9907    0.0000 C   0  0  3  0  0  0  0  0  0  0  0  0
    2.8458   -0.2254    0.0000 O   0  0  0  0  0  0  0  0  0  0  0  0
    3.5547   -0.2695    0.0000 C   0  0  3  0  0  0  0  0  0  0  0  0
    2.9619    0.3042    0.0000 O   0  0  0  0  0  0  0  0  0  0  0  0
    3.1623    1.1045    0.0000 C   0  0  0  0  0  0  0  0  0  0  0  0
    2.5695    1.6782    0.0000 C   0  0  0  0  0  0  0  0  0  0  0  0
    3.9556    1.3310    0.0000 O   0  0  0  0  0  0  0  0  0  0  0  0
    1.2693   -0.8820    0.0000 O   0  0  0  0  0  0  0  0  0  0  0  0
    0.4890   -1.1498    0.0000 C   0  0  0  0  0  0  0  0  0  0  0  0
    0.3307   -1.9594    0.0000 C   0  0  0  0  0  0  0  0  0  0  0  0
   -0.1331   -0.6078    0.0000 O   0  0  0  0  0  0  0  0  0  0  0  0
  1  2  1  0  0  0  0
  2  3  1  0  0  0  0
  2 48  1  0  0  0  0
  3  4  2  0  0  0  0
  4  5  1  0  0  0  0
  5  6  1  0  0  0  0
  5  7  1  0  0  0  0
  5  8  1  0  0  0  0
  8  9  1  0  0  0  0
  8 18  1  0  0  0  0
  9 10  1  0  0  0  0
 10 11  2  0  0  0  0
 10 12  1  0  0  0  0
 12 13  2  0  0  0  0
 12 17  1  0  0  0  0
 13 14  1  0  0  0  0
 14 15  2  0  0  0  0
 15 16  1  0  0  0  0
 16 17  2  0  0  0  0
 18 19  1  0  0  0  0
 18 20  1  0  0  0  0
 20 21  1  0  0  0  0
 20 25  1  0  0  0  0
 21 22  1  0  0  0  0
 22 23  1  0  0  0  0
 22 24  2  0  0  0  0
 25 26  2  0  0  0  0
 25 27  1  0  0  0  0
 27 28  1  0  0  0  0
 27 32  1  0  0  0  0
 28 29  1  0  0  0  0
 29 30  1  0  0  0  0
 29 31  2  0  0  0  0
 32 33  1  0  0  0  0
 32 46  1  0  0  0  0
 33 34  1  0  0  0  0
 33 43  1  0  0  0  0
 34 35  1  0  0  0  0
 35 36  2  0  0  0  0
 35 37  1  0  0  0  0
 37 38  2  0  0  0  0
 37 42  1  0  0  0  0
 38 39  1  0  0  0  0
 39 40  2  0  0  0  0
 40 41  1  0  0  0  0
 41 42  2  0  0  0  0
 43 44  1  0  0  0  0
 43 45  1  0  0  0  0
 43 53  1  0  0  0  0
 45 46  1  0  0  0  0
 46 47  1  0  0  0  0
 46 48  1  0  0  0  0
 48 49  1  0  0  0  0
 49 50  1  0  0  0  0
 50 51  1  0  0  0  0
 50 52  2  0  0  0  0
 53 54  1  0  0  0  0
 54 55  1  0  0  0  0
 54 56  2  0  0  0  0
M  END
$$$$

 OpenBabel12191814062D

 53 56  0  0  0  0  0  0  0  0999 V2000
    4.2489    0.9795    0.0000 C   0  0  0  0  0  0  0  0  0  0  0  0
    4.2624    0.1546    0.0000 C   0  0  3  0  0  0  0  0  0  0  0  0
    4.9835   -0.2461    0.0000 C   0  0  0  0  0  0  0  0  0  0  0  0
    5.8084   -0.2326    0.0000 C   0  0  0  0  0  0  0  0  0  0  0  0
    6.2325   -0.9402    0.0000 C   0  0  0  0  0  0  0  0  0  0  0  0
    7.0123   -1.2097    0.0000 C   0  0  0  0  0  0  0  0  0  0  0  0
    6.7524   -0.2996    0.0000 C   0  0  0  0  0  0  0  0  0  0  0  0
    6.2461   -1.7651    0.0000 C   0  0  3  0  0  0  0  0  0  0  0  0
    7.0463   -1.9656    0.0000 O   0  0  0  0  0  0  0  0  0  0  0  0
    7.2729   -2.7588    0.0000 C   0  0  0  0  0  0  0  0  0  0  0  0
    8.0732   -2.9593    0.0000 C   0  0  0  0  0  0  0  0  0  0  0  0
    6.6992   -3.3517    0.0000 O   0  0  0  0  0  0  0  0  0  0  0  0
    5.8453   -2.4862    0.0000 C   0  0  3  0  0  0  0  0  0  0  0  0
    6.4382   -3.0600    0.0000 O   0  0  0  0  0  0  0  0  0  0  0  0
    6.2377   -3.8603    0.0000 C   0  0  0  0  0  0  0  0  0  0  0  0
    5.4444   -4.0868    0.0000 C   0  0  0  0  0  0  0  0  0  0  0  0
    6.8306   -4.4340    0.0000 O   0  0  0  0  0  0  0  0  0  0  0  0
    5.1377   -2.9104    0.0000 C   0  0  3  0  0  0  0  0  0  0  0  0
    5.3642   -3.7037    0.0000 O   0  0  0  0  0  0  0  0  0  0  0  0
    4.7905   -4.2965    0.0000 C   0  0  0  0  0  0  0  0  0  0  0  0
    3.9902   -4.0961    0.0000 O   0  0  0  0  0  0  0  0  0  0  0  0
    5.0171   -5.0898    0.0000 C   0  0  0  0  0  0  0  0  0  0  0  0
    5.8174   -5.2903    0.0000 C   0  0  0  0  0  0  0  0  0  0  0  0
    6.0439   -6.0835    0.0000 C   0  0  0  0  0  0  0  0  0  0  0  0
    5.4702   -6.6764    0.0000 C   0  0  0  0  0  0  0  0  0  0  0  0
    4.6699   -6.4759    0.0000 C   0  0  0  0  0  0  0  0  0  0  0  0
    4.4433   -5.6826    0.0000 C   0  0  0  0  0  0  0  0  0  0  0  0
    4.3128   -2.9239    0.0000 C   0  0  0  0  0  0  0  0  0  0  0  0
    4.1124   -3.7242    0.0000 C   0  0  0  0  0  0  0  0  0  0  0  0
    3.5917   -2.5232    0.0000 C   0  0  3  0  0  0  0  0  0  0  0  0
    3.0179   -3.1160    0.0000 O   0  0  0  0  0  0  0  0  0  0  0  0
    3.2445   -3.9093    0.0000 C   0  0  0  0  0  0  0  0  0  0  0  0
    3.7741   -4.5419    0.0000 O   0  0  0  0  0  0  0  0  0  0  0  0
    2.6708   -4.5021    0.0000 C   0  0  0  0  0  0  0  0  0  0  0  0
    2.8973   -5.2954    0.0000 C   0  0  0  0  0  0  0  0  0  0  0  0
    2.3236   -5.8883    0.0000 C   0  0  0  0  0  0  0  0  0  0  0  0
    1.5233   -5.6878    0.0000 C   0  0  0  0  0  0  0  0  0  0  0  0
    1.2968   -4.8945    0.0000 N   0  0  0  0  0  0  0  0  0  0  0  0
    1.8705   -4.3017    0.0000 C   0  0  0  0  0  0  0  0  0  0  0  0
    3.1675   -1.8156    0.0000 C   0  0  3  0  0  0  0  0  0  0  0  0
    2.3872   -2.0833    0.0000 C   0  0  3  0  0  0  0  0  0  0  0  0
    2.1451   -2.8720    0.0000 O   0  0  0  0  0  0  0  0  0  0  0  0
    1.8914   -1.4239    0.0000 C   0  0  3  0  0  0  0  0  0  0  0  0
    1.2874   -1.9859    0.0000 C   0  0  0  0  0  0  0  0  0  0  0  0
    2.3653   -0.7486    0.0000 C   0  0  0  0  0  0  0  0  0  0  0  0
    3.1540   -0.9907    0.0000 C   0  0  3  0  0  0  0  0  0  0  0  0
    2.8458   -0.2254    0.0000 O   0  0  0  0  0  0  0  0  0  0  0  0
    3.5547   -0.2695    0.0000 C   0  0  0  0  0  0  0  0  0  0  0  0
    2.9619    0.3042    0.0000 O   0  0  0  0  0  0  0  0  0  0  0  0
    1.2693   -0.8820    0.0000 O   0  0  0  0  0  0  0  0  0  0  0  0
    0.4890   -1.1498    0.0000 C   0  0  0  0  0  0  0  0  0  0  0  0
    0.3307   -1.9594    0.0000 C   0  0  0  0  0  0  0  0  0  0  0  0
   -0.1331   -0.6078    0.0000 O   0  0  0  0  0  0  0  0  0  0  0  0
  1  2  1  0  0  0  0
  2  3  1  0  0  0  0
  2 48  1  0  0  0  0
  3  4  2  0  0  0  0
  4  5  1  0  0  0  0
  5  6  1  0  0  0  0
  5  7  1  0  0  0  0
  5  8  1  0  0  0  0
  8  9  1  0  0  0  0
  8 13  1  0  0  0  0
  9 10  1  0  0  0  0
 10 11  1  0  0  0  0
 10 12  2  0  0  0  0
 13 14  1  0  0  0  0
 13 18  1  0  0  0  0
 14 15  1  0  0  0  0
 15 16  1  0  0  0  0
 15 17  2  0  0  0  0
 18 19  1  0  0  0  0
 18 28  1  0  0  0  0
 19 20  1  0  0  0  0
 20 21  2  0  0  0  0
 20 22  1  0  0  0  0
 22 23  2  0  0  0  0
 22 27  1  0  0  0  0
 23 24  1  0  0  0  0
 24 25  2  0  0  0  0
 25 26  1  0  0  0  0
 26 27  2  0  0  0  0
 28 29  2  0  0  0  0
 28 30  1  0  0  0  0
 30 31  1  0  0  0  0
 30 40  1  0  0  0  0
 31 32  1  0  0  0  0
 32 33  2  0  0  0  0
 32 34  1  0  0  0  0
 34 35  2  0  0  0  0
 34 39  1  0  0  0  0
 35 36  1  0  0  0  0
 36 37  2  0  0  0  0
 37 38  1  0  0  0  0
 38 39  2  0  0  0  0
 40 41  1  0  0  0  0
 40 46  1  0  0  0  0
 41 42  1  0  0  0  0
 41 43  1  0  0  0  0
 43 44  1  0  0  0  0
 43 45  1  0  0  0  0
 43 50  1  0  0  0  0
 45 46  1  0  0  0  0
 46 47  1  0  0  0  0
 46 48  1  0  0  0  0
 48 49  2  0  0  0  0
 50 51  1  0  0  0  0
 51 52  1  0  0  0  0
 51 53  2  0  0  0  0
M  END
$$$$

 OpenBabel12191814062D

 54 56  0  0  0  0  0  0  0  0999 V2000
    4.2489    0.9795    0.0000 C   0  0  0  0  0  0  0  0  0  0  0  0
    4.2624    0.1546    0.0000 C   0  0  3  0  0  0  0  0  0  0  0  0
    4.9835   -0.2461    0.0000 C   0  0  0  0  0  0  0  0  0  0  0  0
    5.8084   -0.2326    0.0000 C   0  0  0  0  0  0  0  0  0  0  0  0
    6.2325   -0.9402    0.0000 C   0  0  0  0  0  0  0  0  0  0  0  0
    7.0123   -1.2097    0.0000 C   0  0  0  0  0  0  0  0  0  0  0  0
    6.7524   -0.2996    0.0000 C   0  0  0  0  0  0  0  0  0  0  0  0
    6.2461   -1.7651    0.0000 C   0  0  3  0  0  0  0  0  0  0  0  0
    7.0463   -1.9656    0.0000 O   0  0  0  0  0  0  0  0  0  0  0  0
    7.2729   -2.7588    0.0000 C   0  0  0  0  0  0  0  0  0  0  0  0
    8.0732   -2.9593    0.0000 C   0  0  0  0  0  0  0  0  0  0  0  0
    6.6992   -3.3517    0.0000 O   0  0  0  0  0  0  0  0  0  0  0  0
    5.8453   -2.4862    0.0000 C   0  0  3  0  0  0  0  0  0  0  0  0
    6.4382   -3.0600    0.0000 O   0  0  0  0  0  0  0  0  0  0  0  0
    6.2377   -3.8603    0.0000 C   0  0  0  0  0  0  0  0  0  0  0  0
    5.4444   -4.0868    0.0000 C   0  0  0  0  0  0  0  0  0  0  0  0
    6.8306   -4.4340    0.0000 O   0  0  0  0  0  0  0  0  0  0  0  0
    5.1377   -2.9104    0.0000 C   0  0  3  0  0  0  0  0  0  0  0  0
    5.3642   -3.7037    0.0000 O   0  0  0  0  0  0  0  0  0  0  0  0
    4.7905   -4.2965    0.0000 C   0  0  0  0  0  0  0  0  0  0  0  0
    3.9902   -4.0961    0.0000 C   0  0  0  0  0  0  0  0  0  0  0  0
    5.0171   -5.0898    0.0000 O   0  0  0  0  0  0  0  0  0  0  0  0
    4.3128   -2.9239    0.0000 C   0  0  0  0  0  0  0  0  0  0  0  0
    4.1124   -3.7242    0.0000 C   0  0  0  0  0  0  0  0  0  0  0  0
    3.5917   -2.5232    0.0000 C   0  0  3  0  0  0  0  0  0  0  0  0
    3.0179   -3.1160    0.0000 O   0  0  0  0  0  0  0  0  0  0  0  0
    3.2445   -3.9093    0.0000 C   0  0  0  0  0  0  0  0  0  0  0  0
    3.7741   -4.5419    0.0000 C   0  0  0  0  0  0  0  0  0  0  0  0
    2.6708   -4.5021    0.0000 O   0  0  0  0  0  0  0  0  0  0  0  0
    3.1675   -1.8156    0.0000 C   0  0  3  0  0  0  0  0  0  0  0  0
    2.3872   -2.0833    0.0000 C   0  0  3  0  0  0  0  0  0  0  0  0
    2.1451   -2.8720    0.0000 O   0  0  0  0  0  0  0  0  0  0  0  0
    1.3411   -3.0567    0.0000 C   0  0  0  0  0  0  0  0  0  0  0  0
    0.7791   -2.4528    0.0000 O   0  0  0  0  0  0  0  0  0  0  0  0
    1.0990   -3.8454    0.0000 C   0  0  0  0  0  0  0  0  0  0  0  0
    1.6610   -4.4494    0.0000 C   0  0  0  0  0  0  0  0  0  0  0  0
    1.4190   -5.2381    0.0000 C   0  0  0  0  0  0  0  0  0  0  0  0
    0.6149   -5.4228    0.0000 C   0  0  0  0  0  0  0  0  0  0  0  0
    0.0529   -4.8188    0.0000 C   0  0  0  0  0  0  0  0  0  0  0  0
    0.2950   -4.0301    0.0000 C   0  0  0  0  0  0  0  0  0  0  0  0
    1.8914   -1.4239    0.0000 C   0  0  3  0  0  0  0  0  0  0  0  0
    1.2874   -1.9859    0.0000 C   0  0  0  0  0  0  0  0  0  0  0  0
    2.3653   -0.7486    0.0000 C   0  0  0  0  0  0  0  0  0  0  0  0
    3.1540   -0.9907    0.0000 C   0  0  3  0  0  0  0  0  0  0  0  0
    2.8458   -0.2254    0.0000 O   0  0  0  0  0  0  0  0  0  0  0  0
    3.5547   -0.2695    0.0000 C   0  0  3  0  0  0  0  0  0  0  0  0
    2.9619    0.3042    0.0000 O   0  0  0  0  0  0  0  0  0  0  0  0
    3.1623    1.1045    0.0000 C   0  0  0  0  0  0  0  0  0  0  0  0
    2.5695    1.6782    0.0000 C   0  0  0  0  0  0  0  0  0  0  0  0
    3.9556    1.3310    0.0000 O   0  0  0  0  0  0  0  0  0  0  0  0
    1.2693   -0.8820    0.0000 O   0  0  0  0  0  0  0  0  0  0  0  0
    0.4890   -1.1498    0.0000 C   0  0  0  0  0  0  0  0  0  0  0  0
    0.3307   -1.9594    0.0000 C   0  0  0  0  0  0  0  0  0  0  0  0
   -0.1331   -0.6078    0.0000 O   0  0  0  0  0  0  0  0  0  0  0  0
  1  2  1  0  0  0  0
  2  3  1  0  0  0  0
  2 46  1  0  0  0  0
  3  4  2  0  0  0  0
  4  5  1  0  0  0  0
  5  6  1  0  0  0  0
  5  7  1  0  0  0  0
  5  8  1  0  0  0  0
  8  9  1  0  0  0  0
  8 13  1  0  0  0  0
  9 10  1  0  0  0  0
 10 11  1  0  0  0  0
 10 12  2  0  0  0  0
 13 14  1  0  0  0  0
 13 18  1  0  0  0  0
 14 15  1  0  0  0  0
 15 16  1  0  0  0  0
 15 17  2  0  0  0  0
 18 19  1  0  0  0  0
 18 23  1  0  0  0  0
 19 20  1  0  0  0  0
 20 21  1  0  0  0  0
 20 22  2  0  0  0  0
 23 24  2  0  0  0  0
 23 25  1  0  0  0  0
 25 26  1  0  0  0  0
 25 30  1  0  0  0  0
 26 27  1  0  0  0  0
 27 28  1  0  0  0  0
 27 29  2  0  0  0  0
 30 31  1  0  0  0  0
 30 44  1  0  0  0  0
 31 32  1  0  0  0  0
 31 41  1  0  0  0  0
 32 33  1  0  0  0  0
 33 34  2  0  0  0  0
 33 35  1  0  0  0  0
 35 36  2  0  0  0  0
 35 40  1  0  0  0  0
 36 37  1  0  0  0  0
 37 38  2  0  0  0  0
 38 39  1  0  0  0  0
 39 40  2  0  0  0  0
 41 42  1  0  0  0  0
 41 43  1  0  0  0  0
 41 51  1  0  0  0  0
 43 44  1  0  0  0  0
 44 45  1  0  0  0  0
 44 46  1  0  0  0  0
 46 47  1  0  0  0  0
 47 48  1  0  0  0  0
 48 49  1  0  0  0  0
 48 50  2  0  0  0  0
 51 52  1  0  0  0  0
 52 53  1  0  0  0  0
 52 54  2  0  0  0  0
M  END
$$$$

 OpenBabel12191814062D

 51 53  0  0  0  0  0  0  0  0999 V2000
    4.2775    0.9594    0.0000 C   0  0  0  0  0  0  0  0  0  0  0  0
    4.2811    0.1344    0.0000 C   0  0  3  0  0  0  0  0  0  0  0  0
    4.9974   -0.2750    0.0000 C   0  0  0  0  0  0  0  0  0  0  0  0
    5.8224   -0.2714    0.0000 C   0  0  0  0  0  0  0  0  0  0  0  0
    6.2380   -0.9841    0.0000 C   0  0  0  0  0  0  0  0  0  0  0  0
    7.0144   -1.2629    0.0000 C   0  0  0  0  0  0  0  0  0  0  0  0
    6.7655   -0.3498    0.0000 C   0  0  0  0  0  0  0  0  0  0  0  0
    6.2415   -1.8091    0.0000 C   0  0  3  0  0  0  0  0  0  0  0  0
    7.0393   -2.0192    0.0000 O   0  0  0  0  0  0  0  0  0  0  0  0
    7.6202   -1.4333    0.0000 C   0  0  0  0  0  0  0  0  0  0  0  0
    8.4180   -1.6433    0.0000 C   0  0  0  0  0  0  0  0  0  0  0  0
    7.4032   -0.6373    0.0000 O   0  0  0  0  0  0  0  0  0  0  0  0
    5.8321   -2.5253    0.0000 C   0  0  3  0  0  0  0  0  0  0  0  0
    6.4180   -3.1062    0.0000 O   0  0  0  0  0  0  0  0  0  0  0  0
    7.2140   -2.8892    0.0000 C   0  0  0  0  0  0  0  0  0  0  0  0
    7.4241   -2.0914    0.0000 C   0  0  0  0  0  0  0  0  0  0  0  0
    7.7999   -3.4700    0.0000 O   0  0  0  0  0  0  0  0  0  0  0  0
    5.1195   -2.9409    0.0000 C   0  0  3  0  0  0  0  0  0  0  0  0
    5.3364   -3.7369    0.0000 O   0  0  0  0  0  0  0  0  0  0  0  0
    6.1343   -3.9470    0.0000 C   0  0  0  0  0  0  0  0  0  0  0  0
    6.7151   -3.3611    0.0000 C   0  0  0  0  0  0  0  0  0  0  0  0
    6.3512   -4.7429    0.0000 O   0  0  0  0  0  0  0  0  0  0  0  0
    4.2945   -2.9445    0.0000 C   0  0  3  0  0  0  0  0  0  0  0  0
    3.5205   -3.2300    0.0000 C   0  0  0  0  0  0  0  0  0  0  0  0
    4.4413   -3.7564    0.0000 O   0  0  0  0  0  0  0  0  0  0  0  0
    3.8116   -4.2894    0.0000 C   0  0  0  0  0  0  0  0  0  0  0  0
    3.0351   -4.0106    0.0000 C   0  0  0  0  0  0  0  0  0  0  0  0
    3.9584   -5.1012    0.0000 O   0  0  0  0  0  0  0  0  0  0  0  0
    3.8789   -2.2318    0.0000 C   0  0  0  0  0  0  0  0  0  0  0  0
    3.1626   -1.8224    0.0000 C   0  0  0  0  0  0  0  0  0  0  0  0
    2.3791   -2.0808    0.0000 C   0  0  3  0  0  0  0  0  0  0  0  0
    2.1276   -2.8665    0.0000 O   0  0  0  0  0  0  0  0  0  0  0  0
    1.3214   -3.0415    0.0000 C   0  0  0  0  0  0  0  0  0  0  0  0
    0.7667   -2.4308    0.0000 O   0  0  0  0  0  0  0  0  0  0  0  0
    1.0698   -3.8273    0.0000 C   0  0  0  0  0  0  0  0  0  0  0  0
    1.6245   -4.4379    0.0000 C   0  0  0  0  0  0  0  0  0  0  0  0
    1.3730   -5.2237    0.0000 C   0  0  0  0  0  0  0  0  0  0  0  0
    0.5668   -5.3987    0.0000 C   0  0  0  0  0  0  0  0  0  0  0  0
    0.0121   -4.7880    0.0000 C   0  0  0  0  0  0  0  0  0  0  0  0
    0.2636   -4.0023    0.0000 C   0  0  0  0  0  0  0  0  0  0  0  0
    1.8913   -1.4155    0.0000 C   0  0  3  0  0  0  0  0  0  0  0  0
    1.2806   -1.9701    0.0000 C   0  0  0  0  0  0  0  0  0  0  0  0
    1.2758   -0.8661    0.0000 O   0  0  0  0  0  0  0  0  0  0  0  0
    2.3733   -0.7459    0.0000 C   0  0  0  0  0  0  0  0  0  0  0  0
    3.1590   -0.9975    0.0000 C   0  0  3  0  0  0  0  0  0  0  0  0
    2.8601   -0.2285    0.0000 O   0  0  0  0  0  0  0  0  0  0  0  0
    2.0447   -0.1030    0.0000 C   0  0  0  0  0  0  0  0  0  0  0  0
    1.5283   -0.7464    0.0000 C   0  0  0  0  0  0  0  0  0  0  0  0
    1.7457    0.6659    0.0000 O   0  0  0  0  0  0  0  0  0  0  0  0
    3.5684   -0.2812    0.0000 C   0  0  0  0  0  0  0  0  0  0  0  0
    2.9826    0.2996    0.0000 O   0  0  0  0  0  0  0  0  0  0  0  0
  1  2  1  0  0  0  0
  2  3  1  0  0  0  0
  2 50  1  0  0  0  0
  3  4  2  0  0  0  0
  4  5  1  0  0  0  0
  5  6  1  0  0  0  0
  5  7  1  0  0  0  0
  5  8  1  0  0  0  0
  8  9  1  0  0  0  0
  8 13  1  0  0  0  0
  9 10  1  0  0  0  0
 10 11  1  0  0  0  0
 10 12  2  0  0  0  0
 13 14  1  0  0  0  0
 13 18  1  0  0  0  0
 14 15  1  0  0  0  0
 15 16  1  0  0  0  0
 15 17  2  0  0  0  0
 18 19  1  0  0  0  0
 18 23  1  0  0  0  0
 19 20  1  0  0  0  0
 20 21  1  0  0  0  0
 20 22  2  0  0  0  0
 23 24  1  0  0  0  0
 23 25  1  0  0  0  0
 23 29  1  0  0  0  0
 25 26  1  0  0  0  0
 26 27  1  0  0  0  0
 26 28  2  0  0  0  0
 29 30  2  0  0  0  0
 30 31  1  0  0  0  0
 30 45  1  0  0  0  0
 31 32  1  0  0  0  0
 31 41  1  0  0  0  0
 32 33  1  0  0  0  0
 33 34  2  0  0  0  0
 33 35  1  0  0  0  0
 35 36  2  0  0  0  0
 35 40  1  0  0  0  0
 36 37  1  0  0  0  0
 37 38  2  0  0  0  0
 38 39  1  0  0  0  0
 39 40  2  0  0  0  0
 41 42  1  0  0  0  0
 41 43  1  0  0  0  0
 41 44  1  0  0  0  0
 44 45  1  0  0  0  0
 45 46  1  0  0  0  0
 45 50  1  0  0  0  0
 46 47  1  0  0  0  0
 47 48  1  0  0  0  0
 47 49  2  0  0  0  0
 50 51  2  0  0  0  0
M  END
$$$$

 OpenBabel12191814062D

 45 49  0  0  0  0  0  0  0  0999 V2000
    2.1434   -0.4125    0.0000 C   0  0  0  0  0  0  0  0  0  0  0  0
    1.4289   -0.8250    0.0000 C   0  0  0  0  0  0  0  0  0  0  0  0
    1.4289   -1.6500    0.0000 C   0  0  0  0  0  0  0  0  0  0  0  0
    0.7145   -2.0625    0.0000 C   0  0  3  0  0  0  0  0  0  0  0  0
    0.0000   -1.6500    0.0000 C   0  0  0  0  0  0  0  0  0  0  0  0
    0.0000   -0.8250    0.0000 C   0  0  0  0  0  0  0  0  0  0  0  0
   -0.7145   -0.4125    0.0000 C   0  0  0  0  0  0  0  0  0  0  0  0
    0.7145   -0.4125    0.0000 N   0  0  0  0  0  0  0  0  0  0  0  0
   -0.7145   -2.0625    0.0000 P   0  0  0  0  0  0  0  0  0  0  0  0
   -0.9966   -1.2873    0.0000 O   0  0  0  0  0  0  0  0  0  0  0  0
   -0.1842   -2.6945    0.0000 O   0  0  0  0  0  0  0  0  0  0  0  0
   -0.4663   -3.4697    0.0000 C   0  0  0  0  0  0  0  0  0  0  0  0
   -1.2788   -3.6130    0.0000 C   0  0  0  0  0  0  0  0  0  0  0  0
   -0.9966   -4.3882    0.0000 C   0  0  0  0  0  0  0  0  0  0  0  0
   -1.9933   -4.0255    0.0000 C   0  0  0  0  0  0  0  0  0  0  0  0
   -1.8091   -2.9810    0.0000 C   0  0  0  0  0  0  0  0  0  0  0  0
   -1.5269   -2.2058    0.0000 O   0  0  0  0  0  0  0  0  0  0  0  0
    0.7145   -2.8875    0.0000 C   0  0  0  0  0  0  0  0  0  0  0  0
    0.0000   -3.3000    0.0000 C   0  0  0  0  0  0  0  0  0  0  0  0
    0.0000   -4.1250    0.0000 C   0  0  0  0  0  0  0  0  0  0  0  0
    0.7145   -4.5375    0.0000 C   0  0  0  0  0  0  0  0  0  0  0  0
    1.4289   -4.1250    0.0000 C   0  0  0  0  0  0  0  0  0  0  0  0
    1.4289   -3.3000    0.0000 C   0  0  0  0  0  0  0  0  0  0  0  0
    2.1434   -4.5375    0.0000 N   0  3  0  0  0  0  0  0  0  0  0  0
    2.8579   -4.1250    0.0000 O   0  5  0  0  0  0  0  0  0  0  0  0
    2.1434   -5.3625    0.0000 O   0  0  0  0  0  0  0  0  0  0  0  0
    2.1434   -2.0625    0.0000 C   0  0  0  0  0  0  0  0  0  0  0  0
    2.1434   -2.8875    0.0000 O   0  0  0  0  0  0  0  0  0  0  0  0
    2.8579   -1.6500    0.0000 O   0  0  0  0  0  0  0  0  0  0  0  0
    3.5724   -2.0625    0.0000 C   0  0  0  0  0  0  0  0  0  0  0  0
    4.2868   -1.6500    0.0000 C   0  0  0  0  0  0  0  0  0  0  0  0
    5.0013   -2.0625    0.0000 N   0  0  0  0  0  0  0  0  0  0  0  0
    5.7158   -1.6500    0.0000 C   0  0  0  0  0  0  0  0  0  0  0  0
    6.4302   -2.0625    0.0000 C   0  0  0  0  0  0  0  0  0  0  0  0
    7.1447   -1.6500    0.0000 C   0  0  0  0  0  0  0  0  0  0  0  0
    7.8592   -2.0625    0.0000 C   0  0  0  0  0  0  0  0  0  0  0  0
    7.8592   -2.8875    0.0000 C   0  0  0  0  0  0  0  0  0  0  0  0
    7.1447   -3.3000    0.0000 C   0  0  0  0  0  0  0  0  0  0  0  0
    6.4302   -2.8875    0.0000 C   0  0  0  0  0  0  0  0  0  0  0  0
    5.0013   -2.8875    0.0000 C   0  0  0  0  0  0  0  0  0  0  0  0
    5.7158   -3.3000    0.0000 C   0  0  0  0  0  0  0  0  0  0  0  0
    5.7158   -4.1250    0.0000 C   0  0  0  0  0  0  0  0  0  0  0  0
    5.0013   -4.5375    0.0000 C   0  0  0  0  0  0  0  0  0  0  0  0
    4.2868   -4.1250    0.0000 C   0  0  0  0  0  0  0  0  0  0  0  0
    4.2868   -3.3000    0.0000 C   0  0  0  0  0  0  0  0  0  0  0  0
  1  2  1  0  0  0  0
  2  3  2  0  0  0  0
  2  8  1  0  0  0  0
  3  4  1  0  0  0  0
  3 27  1  0  0  0  0
  4  5  1  0  0  0  0
  4 18  1  0  0  0  0
  5  6  2  0  0  0  0
  5  9  1  0  0  0  0
  6  7  1  0  0  0  0
  6  8  1  0  0  0  0
  9 10  2  0  0  0  0
  9 11  1  0  0  0  0
  9 17  1  0  0  0  0
 11 12  1  0  0  0  0
 12 13  1  0  0  0  0
 13 14  1  0  0  0  0
 13 15  1  0  0  0  0
 13 16  1  0  0  0  0
 16 17  1  0  0  0  0
 18 19  2  0  0  0  0
 18 23  1  0  0  0  0
 19 20  1  0  0  0  0
 20 21  2  0  0  0  0
 21 22  1  0  0  0  0
 22 23  2  0  0  0  0
 22 24  1  0  0  0  0
 24 25  1  0  0  0  0
 24 26  2  0  0  0  0
 27 28  2  0  0  0  0
 27 29  1  0  0  0  0
 29 30  1  0  0  0  0
 30 31  1  0  0  0  0
 31 32  1  0  0  0  0
 32 33  1  0  0  0  0
 32 40  1  0  0  0  0
 33 34  1  0  0  0  0
 34 35  2  0  0  0  0
 34 39  1  0  0  0  0
 35 36  1  0  0  0  0
 36 37  2  0  0  0  0
 37 38  1  0  0  0  0
 38 39  2  0  0  0  0
 40 41  2  0  0  0  0
 40 45  1  0  0  0  0
 41 42  1  0  0  0  0
 42 43  2  0  0  0  0
 43 44  1  0  0  0  0
 44 45  2  0  0  0  0
M  CHG  2  24   1  25  -1
M  END
$$$$

 OpenBabel12191814062D

 31 34  0  0  0  0  0  0  0  0999 V2000
    2.1434   -0.4125    0.0000 C   0  0  0  0  0  0  0  0  0  0  0  0
    2.1434   -1.2375    0.0000 C   0  0  0  0  0  0  0  0  0  0  0  0
    1.4289   -1.6500    0.0000 C   0  0  0  0  0  0  0  0  0  0  0  0
    1.4289   -2.4750    0.0000 C   0  0  3  0  0  0  0  0  0  0  0  0
    2.1434   -2.8875    0.0000 C   0  0  0  0  0  0  0  0  0  0  0  0
    2.1434   -3.7125    0.0000 C   0  0  0  0  0  0  0  0  0  0  0  0
    1.4289   -4.1250    0.0000 O   0  0  0  0  0  0  0  0  0  0  0  0
    2.8579   -4.1250    0.0000 C   0  0  0  0  0  0  0  0  0  0  0  0
    3.5724   -3.7125    0.0000 C   0  0  0  0  0  0  0  0  0  0  0  0
    4.2868   -4.1250    0.0000 C   0  0  0  0  0  0  0  0  0  0  0  0
    4.2868   -4.9500    0.0000 C   0  0  0  0  0  0  0  0  0  0  0  0
    3.5724   -5.3625    0.0000 C   0  0  0  0  0  0  0  0  0  0  0  0
    2.8579   -4.9500    0.0000 C   0  0  0  0  0  0  0  0  0  0  0  0
    2.8579   -2.4750    0.0000 C   0  0  0  0  0  0  0  0  0  0  0  0
    3.5724   -2.8875    0.0000 C   0  0  0  0  0  0  0  0  0  0  0  0
    2.8579   -1.6500    0.0000 N   0  0  0  0  0  0  0  0  0  0  0  0
    0.7145   -2.8875    0.0000 C   0  0  0  0  0  0  0  0  0  0  0  0
    0.0000   -2.4750    0.0000 C   0  0  0  0  0  0  0  0  0  0  0  0
   -0.7145   -2.8875    0.0000 C   0  0  0  0  0  0  0  0  0  0  0  0
   -0.7145   -3.7125    0.0000 C   0  0  0  0  0  0  0  0  0  0  0  0
    0.0000   -4.1250    0.0000 C   0  0  0  0  0  0  0  0  0  0  0  0
    0.0000   -4.9500    0.0000 Cl  0  0  0  0  0  0  0  0  0  0  0  0
    0.7145   -3.7125    0.0000 C   0  0  0  0  0  0  0  0  0  0  0  0
    0.7145   -1.2375    0.0000 C   0  0  0  0  0  0  0  0  0  0  0  0
    0.0000   -1.6500    0.0000 O   0  0  0  0  0  0  0  0  0  0  0  0
    0.7145   -0.4125    0.0000 C   0  0  0  0  0  0  0  0  0  0  0  0
   -0.0000   -0.0000    0.0000 C   0  0  0  0  0  0  0  0  0  0  0  0
   -0.0000    0.8250    0.0000 C   0  0  0  0  0  0  0  0  0  0  0  0
    0.7145    1.2375    0.0000 C   0  0  0  0  0  0  0  0  0  0  0  0
    1.4289    0.8250    0.0000 C   0  0  0  0  0  0  0  0  0  0  0  0
    1.4289   -0.0000    0.0000 C   0  0  0  0  0  0  0  0  0  0  0  0
  1  2  1  0  0  0  0
  2  3  2  0  0  0  0
  2 16  1  0  0  0  0
  3  4  1  0  0  0  0
  3 24  1  0  0  0  0
  4  5  1  0  0  0  0
  4 17  1  0  0  0  0
  5  6  1  0  0  0  0
  5 14  2  0  0  0  0
  6  7  2  0  0  0  0
  6  8  1  0  0  0  0
  8  9  2  0  0  0  0
  8 13  1  0  0  0  0
  9 10  1  0  0  0  0
 10 11  2  0  0  0  0
 11 12  1  0  0  0  0
 12 13  2  0  0  0  0
 14 15  1  0  0  0  0
 14 16  1  0  0  0  0
 17 18  2  0  0  0  0
 17 23  1  0  0  0  0
 18 19  1  0  0  0  0
 19 20  2  0  0  0  0
 20 21  1  0  0  0  0
 21 22  1  0  0  0  0
 21 23  2  0  0  0  0
 24 25  2  0  0  0  0
 24 26  1  0  0  0  0
 26 27  2  0  0  0  0
 26 31  1  0  0  0  0
 27 28  1  0  0  0  0
 28 29  2  0  0  0  0
 29 30  1  0  0  0  0
 30 31  2  0  0  0  0
M  END
$$$$

 OpenBabel12191814062D

 37 41  0  0  0  0  0  0  0  0999 V2000
   -0.7145   -0.4125    0.0000 C   0  0  0  0  0  0  0  0  0  0  0  0
   -0.7145   -1.2375    0.0000 C   0  0  0  0  0  0  0  0  0  0  0  0
    0.0000   -1.6500    0.0000 C   0  0  0  0  0  0  0  0  0  0  0  0
    0.0000   -2.4750    0.0000 C   0  0  3  0  0  0  0  0  0  0  0  0
   -0.7145   -2.8875    0.0000 C   0  0  0  0  0  0  0  0  0  0  0  0
   -0.7145   -3.7125    0.0000 C   0  0  0  0  0  0  0  0  0  0  0  0
   -0.0000   -4.1250    0.0000 O   0  0  0  0  0  0  0  0  0  0  0  0
   -1.4289   -4.1250    0.0000 C   0  0  0  0  0  0  0  0  0  0  0  0
   -1.4289   -4.9500    0.0000 C   0  0  0  0  0  0  0  0  0  0  0  0
   -2.1434   -5.3625    0.0000 C   0  0  0  0  0  0  0  0  0  0  0  0
   -2.8579   -4.9500    0.0000 C   0  0  0  0  0  0  0  0  0  0  0  0
   -2.8579   -4.1250    0.0000 C   0  0  0  0  0  0  0  0  0  0  0  0
   -2.1434   -3.7125    0.0000 C   0  0  0  0  0  0  0  0  0  0  0  0
   -1.4289   -2.4750    0.0000 C   0  0  0  0  0  0  0  0  0  0  0  0
   -2.1434   -2.8875    0.0000 C   0  0  0  0  0  0  0  0  0  0  0  0
   -1.4289   -1.6500    0.0000 N   0  0  0  0  0  0  0  0  0  0  0  0
    0.7145   -2.8875    0.0000 C   0  0  0  0  0  0  0  0  0  0  0  0
    1.4289   -2.4750    0.0000 C   0  0  0  0  0  0  0  0  0  0  0  0
    2.1434   -2.8875    0.0000 C   0  0  0  0  0  0  0  0  0  0  0  0
    2.1434   -3.7125    0.0000 C   0  0  0  0  0  0  0  0  0  0  0  0
    1.4289   -4.1250    0.0000 C   0  0  0  0  0  0  0  0  0  0  0  0
    1.4289   -4.9500    0.0000 O   0  0  0  0  0  0  0  0  0  0  0  0
    0.7145   -5.3625    0.0000 C   0  0  0  0  0  0  0  0  0  0  0  0
    0.7145   -6.1875    0.0000 C   0  0  0  0  0  0  0  0  0  0  0  0
   -0.0000   -6.6000    0.0000 C   0  0  0  0  0  0  0  0  0  0  0  0
   -0.7145   -6.1875    0.0000 C   0  0  0  0  0  0  0  0  0  0  0  0
   -0.7145   -5.3625    0.0000 C   0  0  0  0  0  0  0  0  0  0  0  0
   -0.0000   -4.9500    0.0000 C   0  0  0  0  0  0  0  0  0  0  0  0
    0.7145   -3.7125    0.0000 C   0  0  0  0  0  0  0  0  0  0  0  0
    0.7145   -1.2375    0.0000 C   0  0  0  0  0  0  0  0  0  0  0  0
    1.4289   -1.6500    0.0000 O   0  0  0  0  0  0  0  0  0  0  0  0
    0.7145   -0.4125    0.0000 C   0  0  0  0  0  0  0  0  0  0  0  0
    0.0000   -0.0000    0.0000 C   0  0  0  0  0  0  0  0  0  0  0  0
    0.0000    0.8250    0.0000 C   0  0  0  0  0  0  0  0  0  0  0  0
    0.7145    1.2375    0.0000 C   0  0  0  0  0  0  0  0  0  0  0  0
    1.4289    0.8250    0.0000 C   0  0  0  0  0  0  0  0  0  0  0  0
    1.4289   -0.0000    0.0000 C   0  0  0  0  0  0  0  0  0  0  0  0
  1  2  1  0  0  0  0
  2  3  2  0  0  0  0
  2 16  1  0  0  0  0
  3  4  1  0  0  0  0
  3 30  1  0  0  0  0
  4  5  1  0  0  0  0
  4 17  1  0  0  0  0
  5  6  1  0  0  0  0
  5 14  2  0  0  0  0
  6  7  2  0  0  0  0
  6  8  1  0  0  0  0
  8  9  2  0  0  0  0
  8 13  1  0  0  0  0
  9 10  1  0  0  0  0
 10 11  2  0  0  0  0
 11 12  1  0  0  0  0
 12 13  2  0  0  0  0
 14 15  1  0  0  0  0
 14 16  1  0  0  0  0
 17 18  2  0  0  0  0
 17 29  1  0  0  0  0
 18 19  1  0  0  0  0
 19 20  2  0  0  0  0
 20 21  1  0  0  0  0
 21 22  1  0  0  0  0
 21 29  2  0  0  0  0
 22 23  1  0  0  0  0
 23 24  2  0  0  0  0
 23 28  1  0  0  0  0
 24 25  1  0  0  0  0
 25 26  2  0  0  0  0
 26 27  1  0  0  0  0
 27 28  2  0  0  0  0
 30 31  2  0  0  0  0
 30 32  1  0  0  0  0
 32 33  2  0  0  0  0
 32 37  1  0  0  0  0
 33 34  1  0  0  0  0
 34 35  2  0  0  0  0
 35 36  1  0  0  0  0
 36 37  2  0  0  0  0
M  END
$$$$

 OpenBabel12191814062D

 30 33  0  0  0  0  0  0  0  0999 V2000
    2.1434   -0.4125    0.0000 C   0  0  0  0  0  0  0  0  0  0  0  0
    2.1434   -1.2375    0.0000 C   0  0  0  0  0  0  0  0  0  0  0  0
    1.4289   -1.6500    0.0000 C   0  0  0  0  0  0  0  0  0  0  0  0
    1.4289   -2.4750    0.0000 C   0  0  3  0  0  0  0  0  0  0  0  0
    2.1434   -2.8875    0.0000 C   0  0  0  0  0  0  0  0  0  0  0  0
    2.1434   -3.7125    0.0000 C   0  0  0  0  0  0  0  0  0  0  0  0
    1.4289   -4.1250    0.0000 O   0  0  0  0  0  0  0  0  0  0  0  0
    2.8579   -4.1250    0.0000 C   0  0  0  0  0  0  0  0  0  0  0  0
    3.5724   -3.7125    0.0000 C   0  0  0  0  0  0  0  0  0  0  0  0
    4.2868   -4.1250    0.0000 C   0  0  0  0  0  0  0  0  0  0  0  0
    4.2868   -4.9500    0.0000 C   0  0  0  0  0  0  0  0  0  0  0  0
    3.5724   -5.3625    0.0000 C   0  0  0  0  0  0  0  0  0  0  0  0
    2.8579   -4.9500    0.0000 C   0  0  0  0  0  0  0  0  0  0  0  0
    2.8579   -2.4750    0.0000 C   0  0  0  0  0  0  0  0  0  0  0  0
    3.5724   -2.8875    0.0000 C   0  0  0  0  0  0  0  0  0  0  0  0
    2.8579   -1.6500    0.0000 N   0  0  0  0  0  0  0  0  0  0  0  0
    0.7145   -2.8875    0.0000 C   0  0  0  0  0  0  0  0  0  0  0  0
    0.7145   -3.7125    0.0000 C   0  0  0  0  0  0  0  0  0  0  0  0
    0.0000   -4.1250    0.0000 C   0  0  0  0  0  0  0  0  0  0  0  0
   -0.7145   -3.7125    0.0000 C   0  0  0  0  0  0  0  0  0  0  0  0
   -0.7145   -2.8875    0.0000 C   0  0  0  0  0  0  0  0  0  0  0  0
    0.0000   -2.4750    0.0000 C   0  0  0  0  0  0  0  0  0  0  0  0
    0.7145   -1.2375    0.0000 C   0  0  0  0  0  0  0  0  0  0  0  0
    0.0000   -1.6500    0.0000 O   0  0  0  0  0  0  0  0  0  0  0  0
    0.7145   -0.4125    0.0000 C   0  0  0  0  0  0  0  0  0  0  0  0
   -0.0000   -0.0000    0.0000 C   0  0  0  0  0  0  0  0  0  0  0  0
   -0.0000    0.8250    0.0000 C   0  0  0  0  0  0  0  0  0  0  0  0
    0.7145    1.2375    0.0000 C   0  0  0  0  0  0  0  0  0  0  0  0
    1.4289    0.8250    0.0000 C   0  0  0  0  0  0  0  0  0  0  0  0
    1.4289   -0.0000    0.0000 C   0  0  0  0  0  0  0  0  0  0  0  0
  1  2  1  0  0  0  0
  2  3  2  0  0  0  0
  2 16  1  0  0  0  0
  3  4  1  0  0  0  0
  3 23  1  0  0  0  0
  4  5  1  0  0  0  0
  4 17  1  0  0  0  0
  5  6  1  0  0  0  0
  5 14  2  0  0  0  0
  6  7  2  0  0  0  0
  6  8  1  0  0  0  0
  8  9  2  0  0  0  0
  8 13  1  0  0  0  0
  9 10  1  0  0  0  0
 10 11  2  0  0  0  0
 11 12  1  0  0  0  0
 12 13  2  0  0  0  0
 14 15  1  0  0  0  0
 14 16  1  0  0  0  0
 17 18  2  0  0  0  0
 17 22  1  0  0  0  0
 18 19  1  0  0  0  0
 19 20  2  0  0  0  0
 20 21  1  0  0  0  0
 21 22  2  0  0  0  0
 23 24  2  0  0  0  0
 23 25  1  0  0  0  0
 25 26  2  0  0  0  0
 25 30  1  0  0  0  0
 26 27  1  0  0  0  0
 27 28  2  0  0  0  0
 28 29  1  0  0  0  0
 29 30  2  0  0  0  0
M  END
$$$$

 OpenBabel12191814062D

 33 36  0  0  0  0  0  0  0  0999 V2000
    2.1434   -0.4125    0.0000 C   0  0  0  0  0  0  0  0  0  0  0  0
    2.1434   -1.2375    0.0000 C   0  0  0  0  0  0  0  0  0  0  0  0
    1.4289   -1.6500    0.0000 C   0  0  0  0  0  0  0  0  0  0  0  0
    1.4289   -2.4750    0.0000 C   0  0  3  0  0  0  0  0  0  0  0  0
    2.1434   -2.8875    0.0000 C   0  0  0  0  0  0  0  0  0  0  0  0
    1.8959   -3.4650    0.0000 C   0  0  0  0  0  0  0  0  0  0  0  0
    1.8079   -4.4662    0.0000 O   0  0  0  0  0  0  0  0  0  0  0  0
    2.8579   -4.1250    0.0000 C   0  0  0  0  0  0  0  0  0  0  0  0
    3.5724   -3.7125    0.0000 C   0  0  0  0  0  0  0  0  0  0  0  0
    4.2868   -4.1250    0.0000 C   0  0  0  0  0  0  0  0  0  0  0  0
    4.2868   -4.9500    0.0000 C   0  0  0  0  0  0  0  0  0  0  0  0
    3.5724   -5.3625    0.0000 C   0  0  0  0  0  0  0  0  0  0  0  0
    2.8579   -4.9500    0.0000 C   0  0  0  0  0  0  0  0  0  0  0  0
    2.8579   -2.4750    0.0000 C   0  0  0  0  0  0  0  0  0  0  0  0
    3.5724   -2.8875    0.0000 C   0  0  0  0  0  0  0  0  0  0  0  0
    2.8579   -1.6500    0.0000 N   0  0  0  0  0  0  0  0  0  0  0  0
    0.7145   -2.8875    0.0000 C   0  0  0  0  0  0  0  0  0  0  0  0
    0.0000   -2.4750    0.0000 C   0  0  0  0  0  0  0  0  0  0  0  0
   -0.7145   -2.8875    0.0000 C   0  0  0  0  0  0  0  0  0  0  0  0
   -0.7145   -3.7125    0.0000 C   0  0  0  0  0  0  0  0  0  0  0  0
    0.0000   -4.1250    0.0000 C   0  0  0  0  0  0  0  0  0  0  0  0
    0.7145   -3.7125    0.0000 C   0  0  0  0  0  0  0  0  0  0  0  0
    1.4289   -4.1250    0.0000 N   0  3  0  0  0  0  0  0  0  0  0  0
    1.4289   -4.9500    0.0000 O   0  5  0  0  0  0  0  0  0  0  0  0
    2.1434   -3.7125    0.0000 O   0  0  0  0  0  0  0  0  0  0  0  0
    0.7145   -1.2375    0.0000 C   0  0  0  0  0  0  0  0  0  0  0  0
    0.0000   -1.6500    0.0000 O   0  0  0  0  0  0  0  0  0  0  0  0
    0.7145   -0.4125    0.0000 C   0  0  0  0  0  0  0  0  0  0  0  0
   -0.0000   -0.0000    0.0000 C   0  0  0  0  0  0  0  0  0  0  0  0
   -0.0000    0.8250    0.0000 C   0  0  0  0  0  0  0  0  0  0  0  0
    0.7145    1.2375    0.0000 C   0  0  0  0  0  0  0  0  0  0  0  0
    1.4289    0.8250    0.0000 C   0  0  0  0  0  0  0  0  0  0  0  0
    1.4289   -0.0000    0.0000 C   0  0  0  0  0  0  0  0  0  0  0  0
  1  2  1  0  0  0  0
  2  3  2  0  0  0  0
  2 16  1  0  0  0  0
  3  4  1  0  0  0  0
  3 26  1  0  0  0  0
  4  5  1  0  0  0  0
  4 17  1  0  0  0  0
  5  6  1  0  0  0  0
  5 14  2  0  0  0  0
  6  7  2  0  0  0  0
  6  8  1  0  0  0  0
  8  9  2  0  0  0  0
  8 13  1  0  0  0  0
  9 10  1  0  0  0  0
 10 11  2  0  0  0  0
 11 12  1  0  0  0  0
 12 13  2  0  0  0  0
 14 15  1  0  0  0  0
 14 16  1  0  0  0  0
 17 18  2  0  0  0  0
 17 22  1  0  0  0  0
 18 19  1  0  0  0  0
 19 20  2  0  0  0  0
 20 21  1  0  0  0  0
 21 22  2  0  0  0  0
 22 23  1  0  0  0  0
 23 24  1  0  0  0  0
 23 25  2  0  0  0  0
 26 27  2  0  0  0  0
 26 28  1  0  0  0  0
 28 29  2  0  0  0  0
 28 33  1  0  0  0  0
 29 30  1  0  0  0  0
 30 31  2  0  0  0  0
 31 32  1  0  0  0  0
 32 33  2  0  0  0  0
M  CHG  2  23   1  24  -1
M  END
$$$$

 OpenBabel12191814062D

 30 34  0  0  0  0  0  0  0  0999 V2000
    0.0000   -1.6500    0.0000 C   0  0  0  0  0  0  0  0  0  0  0  0
    0.7145   -1.2375    0.0000 C   0  0  0  0  0  0  0  0  0  0  0  0
    0.7145   -0.4125    0.0000 C   0  0  0  0  0  0  0  0  0  0  0  0
    0.0000    0.0000    0.0000 C   0  0  0  0  0  0  0  0  0  0  0  0
    0.0000    0.8250    0.0000 C   0  0  0  0  0  0  0  0  0  0  0  0
   -0.7145    1.2375    0.0000 N   0  0  0  0  0  0  0  0  0  0  0  0
   -1.4289    0.8250    0.0000 C   0  0  0  0  0  0  0  0  0  0  0  0
   -2.1434    1.2375    0.0000 C   0  0  0  0  0  0  0  0  0  0  0  0
   -2.1434    2.0625    0.0000 C   0  0  0  0  0  0  0  0  0  0  0  0
   -1.4289    2.4750    0.0000 C   0  0  0  0  0  0  0  0  0  0  0  0
   -0.7145    2.0625    0.0000 C   0  0  0  0  0  0  0  0  0  0  0  0
   -2.8579    2.4750    0.0000 C   0  0  0  0  0  0  0  0  0  0  0  0
   -3.6116    2.1394    0.0000 N   0  0  0  0  0  0  0  0  0  0  0  0
   -4.1636    2.7525    0.0000 O   0  0  0  0  0  0  0  0  0  0  0  0
   -3.7511    3.4670    0.0000 C   0  0  0  0  0  0  0  0  0  0  0  0
   -4.0060    4.2516    0.0000 C   0  0  0  0  0  0  0  0  0  0  0  0
   -3.4540    4.8647    0.0000 C   0  0  0  0  0  0  0  0  0  0  0  0
   -3.7089    5.6493    0.0000 F   0  0  0  0  0  0  0  0  0  0  0  0
   -2.6470    4.6932    0.0000 C   0  0  0  0  0  0  0  0  0  0  0  0
   -2.3921    3.9086    0.0000 C   0  0  0  0  0  0  0  0  0  0  0  0
   -2.9441    3.2955    0.0000 C   0  0  0  0  0  0  0  0  0  0  0  0
    1.4289    0.0000    0.0000 C   0  0  0  0  0  0  0  0  0  0  0  0
    1.4289    0.8250    0.0000 O   0  0  0  0  0  0  0  0  0  0  0  0
    2.1434   -0.4125    0.0000 N   0  0  0  0  0  0  0  0  0  0  0  0
    2.8579    0.0000    0.0000 C   0  0  0  0  0  0  0  0  0  0  0  0
    3.5724   -0.4125    0.0000 C   0  0  0  0  0  0  0  0  0  0  0  0
    3.5724   -1.2375    0.0000 C   0  0  0  0  0  0  0  0  0  0  0  0
    2.8579   -1.6500    0.0000 C   0  0  0  0  0  0  0  0  0  0  0  0
    2.1434   -1.2375    0.0000 C   0  0  0  0  0  0  0  0  0  0  0  0
    1.4289   -1.6500    0.0000 N   0  0  0  0  0  0  0  0  0  0  0  0
  1  2  1  0  0  0  0
  2  3  2  0  0  0  0
  2 30  1  0  0  0  0
  3  4  1  0  0  0  0
  3 22  1  0  0  0  0
  4  5  1  0  0  0  0
  5  6  1  0  0  0  0
  6  7  1  0  0  0  0
  6 11  1  0  0  0  0
  7  8  1  0  0  0  0
  8  9  1  0  0  0  0
  9 10  1  0  0  0  0
  9 12  1  0  0  0  0
 10 11  1  0  0  0  0
 12 13  2  0  0  0  0
 12 21  1  0  0  0  0
 13 14  1  0  0  0  0
 14 15  1  0  0  0  0
 15 16  2  0  0  0  0
 15 21  1  0  0  0  0
 16 17  1  0  0  0  0
 17 18  1  0  0  0  0
 17 19  2  0  0  0  0
 19 20  1  0  0  0  0
 20 21  2  0  0  0  0
 22 23  2  0  0  0  0
 22 24  1  0  0  0  0
 24 25  1  0  0  0  0
 24 29  1  0  0  0  0
 25 26  1  0  0  0  0
 26 27  1  0  0  0  0
 27 28  1  0  0  0  0
 28 29  1  0  0  0  0
 29 30  2  0  0  0  0
M  END
$$$$

 OpenBabel12191814062D

 15 17  0  0  0  0  0  0  0  0999 V2000
    2.0171    0.3498    0.0000 C   0  0  0  0  0  0  0  0  0  0  0  0
    2.2720   -0.4349    0.0000 C   0  0  0  0  0  0  0  0  0  0  0  0
    3.0790   -0.6064    0.0000 C   0  0  0  0  0  0  0  0  0  0  0  0
    3.7464   -0.1215    0.0000 N   0  0  0  0  0  0  0  0  0  0  0  0
    4.4139   -0.6064    0.0000 C   0  0  0  0  0  0  0  0  0  0  0  0
    5.2208   -0.4349    0.0000 C   0  0  0  0  0  0  0  0  0  0  0  0
    5.7729   -1.0479    0.0000 C   0  0  0  0  0  0  0  0  0  0  0  0
    6.5798   -0.8764    0.0000 O   0  0  0  0  0  0  0  0  0  0  0  0
    5.5179   -1.8326    0.0000 C   0  0  0  0  0  0  0  0  0  0  0  0
    4.7110   -2.0041    0.0000 C   0  0  0  0  0  0  0  0  0  0  0  0
    4.1589   -1.3910    0.0000 C   0  0  0  0  0  0  0  0  0  0  0  0
    3.3339   -1.3910    0.0000 C   0  0  0  0  0  0  0  0  0  0  0  0
    2.7819   -2.0041    0.0000 C   0  0  0  0  0  0  0  0  0  0  0  0
    1.9749   -1.8326    0.0000 C   0  0  0  0  0  0  0  0  0  0  0  0
    1.7200   -1.0479    0.0000 N   0  0  0  0  0  0  0  0  0  0  0  0
  1  2  1  0  0  0  0
  2  3  2  0  0  0  0
  2 15  1  0  0  0  0
  3  4  1  0  0  0  0
  3 12  1  0  0  0  0
  4  5  1  0  0  0  0
  5  6  2  0  0  0  0
  5 11  1  0  0  0  0
  6  7  1  0  0  0  0
  7  8  2  0  0  0  0
  7  9  1  0  0  0  0
  9 10  2  0  0  0  0
 10 11  1  0  0  0  0
 11 12  2  0  0  0  0
 12 13  1  0  0  0  0
 13 14  1  0  0  0  0
 14 15  1  0  0  0  0
M  END
$$$$

 OpenBabel12191814062D

 25 28  0  0  0  0  0  0  0  0999 V2000
    3.5330   -3.2587    0.0000 C   0  0  0  0  0  0  0  0  0  0  0  0
    3.8928   -2.5163    0.0000 C   0  0  3  0  0  0  0  0  0  0  0  0
    4.4247   -3.1470    0.0000 C   0  0  0  0  0  0  0  0  0  0  0  0
    5.2368   -3.0018    0.0000 C   0  0  0  0  0  0  0  0  0  0  0  0
    5.7686   -3.6325    0.0000 O   0  0  0  0  0  0  0  0  0  0  0  0
    5.5171   -2.2259    0.0000 C   0  0  3  0  0  0  0  0  0  0  0  0
    4.9853   -1.5952    0.0000 C   0  0  3  0  0  0  0  0  0  0  0  0
    5.2655   -0.8192    0.0000 C   0  0  0  0  0  0  0  0  0  0  0  0
    6.0777   -0.6740    0.0000 C   0  0  0  0  0  0  0  0  0  0  0  0
    6.6095   -1.3047    0.0000 C   0  0  0  0  0  0  0  0  0  0  0  0
    7.4216   -1.1595    0.0000 C   0  0  0  0  0  0  0  0  0  0  0  0
    7.9534   -1.7902    0.0000 C   0  0  0  0  0  0  0  0  0  0  0  0
    8.7655   -1.6450    0.0000 O   0  0  0  0  0  0  0  0  0  0  0  0
    7.6731   -2.5662    0.0000 C   0  0  0  0  0  0  0  0  0  0  0  0
    6.8610   -2.7114    0.0000 C   0  0  0  0  0  0  0  0  0  0  0  0
    6.3292   -2.0807    0.0000 C   0  0  3  0  0  0  0  0  0  0  0  0
    4.1731   -1.7404    0.0000 C   0  0  3  0  0  0  0  0  0  0  0  0
    3.5218   -1.2340    0.0000 C   0  0  0  0  0  0  0  0  0  0  0  0
    2.8390   -1.6970    0.0000 C   0  0  0  0  0  0  0  0  0  0  0  0
    3.0683   -2.4895    0.0000 C   0  0  3  0  0  0  0  0  0  0  0  0
    2.3074   -2.8084    0.0000 O   0  0  0  0  0  0  0  0  0  0  0  0
    2.9469   -3.3055    0.0000 C   0  0  0  0  0  0  0  0  0  0  0  0
    3.5929   -3.8187    0.0000 O   0  0  0  0  0  0  0  0  0  0  0  0
    2.1795   -3.6084    0.0000 C   0  0  0  0  0  0  0  0  0  0  0  0
    2.0581   -4.4244    0.0000 O   0  0  0  0  0  0  0  0  0  0  0  0
  1  2  1  0  0  0  0
  2  3  1  0  0  0  0
  2 17  1  0  0  0  0
  2 20  1  0  0  0  0
  3  4  1  0  0  0  0
  4  5  2  0  0  0  0
  4  6  1  0  0  0  0
  6  7  1  0  0  0  0
  6 16  1  0  0  0  0
  7  8  1  0  0  0  0
  7 17  1  0  0  0  0
  8  9  1  0  0  0  0
  9 10  1  0  0  0  0
 10 11  2  0  0  0  0
 10 16  1  0  0  0  0
 11 12  1  0  0  0  0
 12 13  2  0  0  0  0
 12 14  1  0  0  0  0
 14 15  1  0  0  0  0
 15 16  1  0  0  0  0
 17 18  1  0  0  0  0
 18 19  1  0  0  0  0
 19 20  1  0  0  0  0
 20 21  1  0  0  0  0
 20 22  1  0  0  0  0
 22 23  2  0  0  0  0
 22 24  1  0  0  0  0
 24 25  1  0  0  0  0
M  END
$$$$

 OpenBabel12191814062D

 21 24  0  0  0  0  0  0  0  0999 V2000
    3.5330   -3.2587    0.0000 C   0  0  0  0  0  0  0  0  0  0  0  0
    3.8928   -2.5163    0.0000 C   0  0  3  0  0  0  0  0  0  0  0  0
    4.4247   -3.1470    0.0000 C   0  0  0  0  0  0  0  0  0  0  0  0
    5.2368   -3.0018    0.0000 C   0  0  0  0  0  0  0  0  0  0  0  0
    5.5171   -2.2259    0.0000 C   0  0  3  0  0  0  0  0  0  0  0  0
    4.9853   -1.5952    0.0000 C   0  0  3  0  0  0  0  0  0  0  0  0
    5.2655   -0.8192    0.0000 C   0  0  0  0  0  0  0  0  0  0  0  0
    6.0777   -0.6740    0.0000 C   0  0  0  0  0  0  0  0  0  0  0  0
    6.6095   -1.3047    0.0000 C   0  0  0  0  0  0  0  0  0  0  0  0
    7.4216   -1.1595    0.0000 C   0  0  0  0  0  0  0  0  0  0  0  0
    7.9534   -1.7902    0.0000 C   0  0  0  0  0  0  0  0  0  0  0  0
    8.7655   -1.6450    0.0000 O   0  0  0  0  0  0  0  0  0  0  0  0
    7.6731   -2.5662    0.0000 C   0  0  0  0  0  0  0  0  0  0  0  0
    6.8610   -2.7114    0.0000 C   0  0  0  0  0  0  0  0  0  0  0  0
    6.3292   -2.0807    0.0000 C   0  0  3  0  0  0  0  0  0  0  0  0
    6.0489   -2.8566    0.0000 C   0  0  0  0  0  0  0  0  0  0  0  0
    4.1731   -1.7404    0.0000 C   0  0  3  0  0  0  0  0  0  0  0  0
    3.5218   -1.2340    0.0000 C   0  0  0  0  0  0  0  0  0  0  0  0
    2.8390   -1.6970    0.0000 C   0  0  0  0  0  0  0  0  0  0  0  0
    3.0683   -2.4895    0.0000 C   0  0  0  0  0  0  0  0  0  0  0  0
    2.5619   -3.1408    0.0000 O   0  0  0  0  0  0  0  0  0  0  0  0
  1  2  1  0  0  0  0
  2  3  1  0  0  0  0
  2 17  1  0  0  0  0
  2 20  1  0  0  0  0
  3  4  1  0  0  0  0
  4  5  1  0  0  0  0
  5  6  1  0  0  0  0
  5 15  1  0  0  0  0
  6  7  1  0  0  0  0
  6 17  1  0  0  0  0
  7  8  1  0  0  0  0
  8  9  2  0  0  0  0
  9 10  1  0  0  0  0
  9 15  1  0  0  0  0
 10 11  1  0  0  0  0
 11 12  2  0  0  0  0
 11 13  1  0  0  0  0
 13 14  1  0  0  0  0
 14 15  1  0  0  0  0
 15 16  1  0  0  0  0
 17 18  1  0  0  0  0
 18 19  1  0  0  0  0
 19 20  1  0  0  0  0
 20 21  2  0  0  0  0
M  END
$$$$

 OpenBabel12191814062D

 25 28  0  0  0  0  0  0  0  0999 V2000
    3.5330   -3.2587    0.0000 C   0  0  0  0  0  0  0  0  0  0  0  0
    3.8928   -2.5163    0.0000 C   0  0  3  0  0  0  0  0  0  0  0  0
    4.4247   -3.1470    0.0000 C   0  0  0  0  0  0  0  0  0  0  0  0
    5.2368   -3.0018    0.0000 C   0  0  0  0  0  0  0  0  0  0  0  0
    5.5171   -2.2259    0.0000 C   0  0  3  0  0  0  0  0  0  0  0  0
    4.9853   -1.5952    0.0000 C   0  0  3  0  0  0  0  0  0  0  0  0
    5.2655   -0.8192    0.0000 C   0  0  0  0  0  0  0  0  0  0  0  0
    6.0777   -0.6740    0.0000 C   0  0  0  0  0  0  0  0  0  0  0  0
    6.6095   -1.3047    0.0000 C   0  0  0  0  0  0  0  0  0  0  0  0
    7.4216   -1.1595    0.0000 C   0  0  0  0  0  0  0  0  0  0  0  0
    7.9534   -1.7902    0.0000 C   0  0  0  0  0  0  0  0  0  0  0  0
    8.7655   -1.6450    0.0000 O   0  0  0  0  0  0  0  0  0  0  0  0
    7.6731   -2.5662    0.0000 C   0  0  0  0  0  0  0  0  0  0  0  0
    6.8610   -2.7114    0.0000 C   0  0  0  0  0  0  0  0  0  0  0  0
    6.3292   -2.0807    0.0000 C   0  0  3  0  0  0  0  0  0  0  0  0
    6.0489   -2.8566    0.0000 C   0  0  0  0  0  0  0  0  0  0  0  0
    4.1731   -1.7404    0.0000 C   0  0  3  0  0  0  0  0  0  0  0  0
    3.5218   -1.2340    0.0000 C   0  0  0  0  0  0  0  0  0  0  0  0
    2.8390   -1.6970    0.0000 C   0  0  0  0  0  0  0  0  0  0  0  0
    3.0683   -2.4895    0.0000 C   0  0  3  0  0  0  0  0  0  0  0  0
    2.3074   -2.8084    0.0000 O   0  0  0  0  0  0  0  0  0  0  0  0
    2.9469   -3.3055    0.0000 C   0  0  0  0  0  0  0  0  0  0  0  0
    3.5929   -3.8187    0.0000 O   0  0  0  0  0  0  0  0  0  0  0  0
    2.1795   -3.6084    0.0000 C   0  0  0  0  0  0  0  0  0  0  0  0
    2.0581   -4.4244    0.0000 O   0  0  0  0  0  0  0  0  0  0  0  0
  1  2  1  0  0  0  0
  2  3  1  0  0  0  0
  2 17  1  0  0  0  0
  2 20  1  0  0  0  0
  3  4  1  0  0  0  0
  4  5  1  0  0  0  0
  5  6  1  0  0  0  0
  5 15  1  0  0  0  0
  6  7  1  0  0  0  0
  6 17  1  0  0  0  0
  7  8  1  0  0  0  0
  8  9  1  0  0  0  0
  9 10  2  0  0  0  0
  9 15  1  0  0  0  0
 10 11  1  0  0  0  0
 11 12  2  0  0  0  0
 11 13  1  0  0  0  0
 13 14  1  0  0  0  0
 14 15  1  0  0  0  0
 15 16  1  0  0  0  0
 17 18  1  0  0  0  0
 18 19  1  0  0  0  0
 19 20  1  0  0  0  0
 20 21  1  0  0  0  0
 20 22  1  0  0  0  0
 22 23  2  0  0  0  0
 22 24  1  0  0  0  0
 24 25  1  0  0  0  0
M  END
$$$$

 OpenBabel12191814062D

 21 24  0  0  0  0  0  0  0  0999 V2000
    3.5330   -3.2587    0.0000 C   0  0  0  0  0  0  0  0  0  0  0  0
    3.8928   -2.5163    0.0000 C   0  0  3  0  0  0  0  0  0  0  0  0
    4.4247   -3.1470    0.0000 C   0  0  0  0  0  0  0  0  0  0  0  0
    5.2368   -3.0018    0.0000 C   0  0  0  0  0  0  0  0  0  0  0  0
    5.5171   -2.2259    0.0000 C   0  0  3  0  0  0  0  0  0  0  0  0
    4.9853   -1.5952    0.0000 C   0  0  3  0  0  0  0  0  0  0  0  0
    5.2655   -0.8192    0.0000 C   0  0  0  0  0  0  0  0  0  0  0  0
    6.0777   -0.6740    0.0000 C   0  0  0  0  0  0  0  0  0  0  0  0
    6.6095   -1.3047    0.0000 C   0  0  0  0  0  0  0  0  0  0  0  0
    7.4216   -1.1595    0.0000 C   0  0  0  0  0  0  0  0  0  0  0  0
    7.9534   -1.7902    0.0000 C   0  0  0  0  0  0  0  0  0  0  0  0
    8.7655   -1.6450    0.0000 O   0  0  0  0  0  0  0  0  0  0  0  0
    7.6731   -2.5662    0.0000 C   0  0  0  0  0  0  0  0  0  0  0  0
    6.8610   -2.7114    0.0000 C   0  0  0  0  0  0  0  0  0  0  0  0
    6.3292   -2.0807    0.0000 C   0  0  3  0  0  0  0  0  0  0  0  0
    6.0489   -2.8566    0.0000 C   0  0  0  0  0  0  0  0  0  0  0  0
    4.1731   -1.7404    0.0000 C   0  0  3  0  0  0  0  0  0  0  0  0
    3.5218   -1.2340    0.0000 C   0  0  0  0  0  0  0  0  0  0  0  0
    2.8390   -1.6970    0.0000 C   0  0  0  0  0  0  0  0  0  0  0  0
    3.0683   -2.4895    0.0000 C   0  0  0  0  0  0  0  0  0  0  0  0
    2.5619   -3.1408    0.0000 O   0  0  0  0  0  0  0  0  0  0  0  0
  1  2  1  0  0  0  0
  2  3  1  0  0  0  0
  2 17  1  0  0  0  0
  2 20  1  0  0  0  0
  3  4  1  0  0  0  0
  4  5  1  0  0  0  0
  5  6  1  0  0  0  0
  5 15  1  0  0  0  0
  6  7  1  0  0  0  0
  6 17  1  0  0  0  0
  7  8  1  0  0  0  0
  8  9  1  0  0  0  0
  9 10  2  0  0  0  0
  9 15  1  0  0  0  0
 10 11  1  0  0  0  0
 11 12  2  0  0  0  0
 11 13  1  0  0  0  0
 13 14  1  0  0  0  0
 14 15  1  0  0  0  0
 15 16  1  0  0  0  0
 17 18  1  0  0  0  0
 18 19  1  0  0  0  0
 19 20  1  0  0  0  0
 20 21  2  0  0  0  0
M  END
$$$$

 OpenBabel12191814062D

 24 27  0  0  0  0  0  0  0  0999 V2000
    3.5330   -3.2587    0.0000 C   0  0  0  0  0  0  0  0  0  0  0  0
    3.8928   -2.5163    0.0000 C   0  0  3  0  0  0  0  0  0  0  0  0
    4.4247   -3.1470    0.0000 C   0  0  0  0  0  0  0  0  0  0  0  0
    5.2368   -3.0018    0.0000 C   0  0  0  0  0  0  0  0  0  0  0  0
    5.5171   -2.2259    0.0000 C   0  0  3  0  0  0  0  0  0  0  0  0
    4.9853   -1.5952    0.0000 C   0  0  3  0  0  0  0  0  0  0  0  0
    5.2655   -0.8192    0.0000 C   0  0  0  0  0  0  0  0  0  0  0  0
    6.0777   -0.6740    0.0000 C   0  0  0  0  0  0  0  0  0  0  0  0
    6.6095   -1.3047    0.0000 C   0  0  0  0  0  0  0  0  0  0  0  0
    7.4216   -1.1595    0.0000 C   0  0  0  0  0  0  0  0  0  0  0  0
    7.9534   -1.7902    0.0000 C   0  0  0  0  0  0  0  0  0  0  0  0
    8.7655   -1.6450    0.0000 O   0  0  0  0  0  0  0  0  0  0  0  0
    7.6731   -2.5662    0.0000 C   0  0  0  0  0  0  0  0  0  0  0  0
    6.8610   -2.7114    0.0000 C   0  0  0  0  0  0  0  0  0  0  0  0
    6.3292   -2.0807    0.0000 C   0  0  3  0  0  0  0  0  0  0  0  0
    6.0489   -2.8566    0.0000 C   0  0  0  0  0  0  0  0  0  0  0  0
    4.1731   -1.7404    0.0000 C   0  0  3  0  0  0  0  0  0  0  0  0
    3.5218   -1.2340    0.0000 C   0  0  0  0  0  0  0  0  0  0  0  0
    2.8390   -1.6970    0.0000 C   0  0  0  0  0  0  0  0  0  0  0  0
    3.0683   -2.4895    0.0000 C   0  0  3  0  0  0  0  0  0  0  0  0
    2.5619   -3.1408    0.0000 C   0  0  0  0  0  0  0  0  0  0  0  0
    2.8728   -3.9050    0.0000 O   0  0  0  0  0  0  0  0  0  0  0  0
    1.7447   -3.0280    0.0000 C   0  0  0  0  0  0  0  0  0  0  0  0
    1.2383   -3.6793    0.0000 O   0  0  0  0  0  0  0  0  0  0  0  0
  1  2  1  0  0  0  0
  2  3  1  0  0  0  0
  2 17  1  0  0  0  0
  2 20  1  0  0  0  0
  3  4  1  0  0  0  0
  4  5  1  0  0  0  0
  5  6  1  0  0  0  0
  5 15  1  0  0  0  0
  6  7  1  0  0  0  0
  6 17  1  0  0  0  0
  7  8  1  0  0  0  0
  8  9  1  0  0  0  0
  9 10  2  0  0  0  0
  9 15  1  0  0  0  0
 10 11  1  0  0  0  0
 11 12  2  0  0  0  0
 11 13  1  0  0  0  0
 13 14  1  0  0  0  0
 14 15  1  0  0  0  0
 15 16  1  0  0  0  0
 17 18  1  0  0  0  0
 18 19  1  0  0  0  0
 19 20  1  0  0  0  0
 20 21  1  0  0  0  0
 21 22  2  0  0  0  0
 21 23  1  0  0  0  0
 23 24  1  0  0  0  0
M  END
$$$$

 OpenBabel12191814062D

 21 24  0  0  0  0  0  0  0  0999 V2000
    3.5330   -3.2587    0.0000 C   0  0  0  0  0  0  0  0  0  0  0  0
    3.8928   -2.5163    0.0000 C   0  0  3  0  0  0  0  0  0  0  0  0
    4.4247   -3.1470    0.0000 C   0  0  0  0  0  0  0  0  0  0  0  0
    5.2368   -3.0018    0.0000 C   0  0  0  0  0  0  0  0  0  0  0  0
    5.5171   -2.2259    0.0000 C   0  0  3  0  0  0  0  0  0  0  0  0
    4.9853   -1.5952    0.0000 C   0  0  3  0  0  0  0  0  0  0  0  0
    5.2655   -0.8192    0.0000 C   0  0  0  0  0  0  0  0  0  0  0  0
    6.0777   -0.6740    0.0000 C   0  0  0  0  0  0  0  0  0  0  0  0
    6.6095   -1.3047    0.0000 C   0  0  0  0  0  0  0  0  0  0  0  0
    7.4216   -1.1595    0.0000 C   0  0  0  0  0  0  0  0  0  0  0  0
    7.9534   -1.7902    0.0000 C   0  0  0  0  0  0  0  0  0  0  0  0
    8.7655   -1.6450    0.0000 O   0  0  0  0  0  0  0  0  0  0  0  0
    7.6731   -2.5662    0.0000 C   0  0  0  0  0  0  0  0  0  0  0  0
    6.8610   -2.7114    0.0000 C   0  0  0  0  0  0  0  0  0  0  0  0
    6.3292   -2.0807    0.0000 C   0  0  3  0  0  0  0  0  0  0  0  0
    6.0489   -2.8566    0.0000 C   0  0  0  0  0  0  0  0  0  0  0  0
    4.1731   -1.7404    0.0000 C   0  0  3  0  0  0  0  0  0  0  0  0
    3.5218   -1.2340    0.0000 C   0  0  0  0  0  0  0  0  0  0  0  0
    2.8390   -1.6970    0.0000 C   0  0  0  0  0  0  0  0  0  0  0  0
    3.0683   -2.4895    0.0000 C   0  0  3  0  0  0  0  0  0  0  0  0
    2.5619   -3.1408    0.0000 O   0  0  0  0  0  0  0  0  0  0  0  0
  1  2  1  0  0  0  0
  2  3  1  0  0  0  0
  2 17  1  0  0  0  0
  2 20  1  0  0  0  0
  3  4  1  0  0  0  0
  4  5  1  0  0  0  0
  5  6  1  0  0  0  0
  5 15  1  0  0  0  0
  6  7  1  0  0  0  0
  6 17  1  0  0  0  0
  7  8  1  0  0  0  0
  8  9  1  0  0  0  0
  9 10  2  0  0  0  0
  9 15  1  0  0  0  0
 10 11  1  0  0  0  0
 11 12  2  0  0  0  0
 11 13  1  0  0  0  0
 13 14  1  0  0  0  0
 14 15  1  0  0  0  0
 15 16  1  0  0  0  0
 17 18  1  0  0  0  0
 18 19  1  0  0  0  0
 19 20  1  0  0  0  0
 20 21  1  0  0  0  0
M  END
$$$$

 OpenBabel12191814062D

 21 24  0  0  0  0  0  0  0  0999 V2000
    3.5330   -3.2587    0.0000 C   0  0  0  0  0  0  0  0  0  0  0  0
    3.8928   -2.5163    0.0000 C   0  0  3  0  0  0  0  0  0  0  0  0
    4.4247   -3.1470    0.0000 C   0  0  0  0  0  0  0  0  0  0  0  0
    5.2368   -3.0018    0.0000 C   0  0  0  0  0  0  0  0  0  0  0  0
    5.5171   -2.2259    0.0000 C   0  0  3  0  0  0  0  0  0  0  0  0
    4.9853   -1.5952    0.0000 C   0  0  3  0  0  0  0  0  0  0  0  0
    5.2655   -0.8192    0.0000 C   0  0  0  0  0  0  0  0  0  0  0  0
    6.0777   -0.6740    0.0000 C   0  0  0  0  0  0  0  0  0  0  0  0
    6.6095   -1.3047    0.0000 C   0  0  3  0  0  0  0  0  0  0  0  0
    7.4216   -1.1595    0.0000 C   0  0  0  0  0  0  0  0  0  0  0  0
    7.9534   -1.7902    0.0000 C   0  0  3  0  0  0  0  0  0  0  0  0
    8.7655   -1.6450    0.0000 O   0  0  0  0  0  0  0  0  0  0  0  0
    7.6731   -2.5662    0.0000 C   0  0  0  0  0  0  0  0  0  0  0  0
    6.8610   -2.7114    0.0000 C   0  0  0  0  0  0  0  0  0  0  0  0
    6.3292   -2.0807    0.0000 C   0  0  3  0  0  0  0  0  0  0  0  0
    6.0489   -2.8566    0.0000 C   0  0  0  0  0  0  0  0  0  0  0  0
    4.1731   -1.7404    0.0000 C   0  0  3  0  0  0  0  0  0  0  0  0
    3.5218   -1.2340    0.0000 C   0  0  0  0  0  0  0  0  0  0  0  0
    2.8390   -1.6970    0.0000 C   0  0  0  0  0  0  0  0  0  0  0  0
    3.0683   -2.4895    0.0000 C   0  0  0  0  0  0  0  0  0  0  0  0
    2.5619   -3.1408    0.0000 O   0  0  0  0  0  0  0  0  0  0  0  0
  1  2  1  0  0  0  0
  2  3  1  0  0  0  0
  2 17  1  0  0  0  0
  2 20  1  0  0  0  0
  3  4  1  0  0  0  0
  4  5  1  0  0  0  0
  5  6  1  0  0  0  0
  5 15  1  0  0  0  0
  6  7  1  0  0  0  0
  6 17  1  0  0  0  0
  7  8  1  0  0  0  0
  8  9  1  0  0  0  0
  9 10  1  0  0  0  0
  9 15  1  0  0  0  0
 10 11  1  0  0  0  0
 11 12  1  0  0  0  0
 11 13  1  0  0  0  0
 13 14  1  0  0  0  0
 14 15  1  0  0  0  0
 15 16  1  0  0  0  0
 17 18  1  0  0  0  0
 18 19  1  0  0  0  0
 19 20  1  0  0  0  0
 20 21  2  0  0  0  0
M  END
$$$$

 OpenBabel12191814062D

 38 42  0  0  0  0  0  0  0  0999 V2000
    2.7512   -4.1866    0.0000 C   0  0  0  0  0  0  0  0  0  0  0  0
    2.7512   -5.0116    0.0000 C   0  0  0  0  0  0  0  0  0  0  0  0
    3.4186   -5.4965    0.0000 C   0  0  0  0  0  0  0  0  0  0  0  0
    4.2032   -5.2416    0.0000 C   0  0  0  0  0  0  0  0  0  0  0  0
    4.3748   -4.4346    0.0000 O   0  0  0  0  0  0  0  0  0  0  0  0
    4.8163   -5.7936    0.0000 C   0  0  0  0  0  0  0  0  0  0  0  0
    5.6010   -5.5387    0.0000 C   0  0  0  0  0  0  0  0  0  0  0  0
    6.2140   -6.0907    0.0000 C   0  0  0  0  0  0  0  0  0  0  0  0
    6.0425   -6.8977    0.0000 C   0  0  0  0  0  0  0  0  0  0  0  0
    5.2579   -7.1526    0.0000 C   0  0  0  0  0  0  0  0  0  0  0  0
    4.6448   -6.6006    0.0000 C   0  0  0  0  0  0  0  0  0  0  0  0
    3.1637   -6.2812    0.0000 C   0  0  0  0  0  0  0  0  0  0  0  0
    3.6486   -6.9486    0.0000 O   0  0  0  0  0  0  0  0  0  0  0  0
    2.3387   -6.2812    0.0000 N   0  0  0  0  0  0  0  0  0  0  0  0
    1.8538   -6.9486    0.0000 C   0  0  0  0  0  0  0  0  0  0  0  0
    2.1893   -7.7023    0.0000 C   0  0  0  0  0  0  0  0  0  0  0  0
    1.7044   -8.3697    0.0000 C   0  0  0  0  0  0  0  0  0  0  0  0
    0.8839   -8.2835    0.0000 C   0  0  0  0  0  0  0  0  0  0  0  0
    0.5484   -7.5298    0.0000 C   0  0  0  0  0  0  0  0  0  0  0  0
    1.0333   -6.8624    0.0000 C   0  0  0  0  0  0  0  0  0  0  0  0
    2.0837   -5.4965    0.0000 N   0  0  0  0  0  0  0  0  0  0  0  0
    1.2991   -5.2416    0.0000 C   0  0  0  0  0  0  0  0  0  0  0  0
    1.1276   -4.4346    0.0000 C   0  0  3  0  0  0  0  0  0  0  0  0
    1.7407   -3.8826    0.0000 O   0  0  0  0  0  0  0  0  0  0  0  0
    0.3430   -4.1797    0.0000 C   0  0  0  0  0  0  0  0  0  0  0  0
    0.1714   -3.3727    0.0000 N   0  0  0  0  0  0  0  0  0  0  0  0
   -0.6132   -3.1178    0.0000 C   0  0  0  0  0  0  0  0  0  0  0  0
   -0.7847   -2.3108    0.0000 C   0  0  0  0  0  0  0  0  0  0  0  0
   -0.1716   -1.7588    0.0000 N   0  0  0  0  0  0  0  0  0  0  0  0
    0.6130   -2.0137    0.0000 C   0  0  0  0  0  0  0  0  0  0  0  0
    0.7845   -2.8207    0.0000 C   0  0  0  0  0  0  0  0  0  0  0  0
   -0.3431   -0.9518    0.0000 C   0  0  0  0  0  0  0  0  0  0  0  0
   -1.1278   -0.6969    0.0000 C   0  0  0  0  0  0  0  0  0  0  0  0
   -1.2993    0.1101    0.0000 C   0  0  0  0  0  0  0  0  0  0  0  0
   -0.6862    0.6622    0.0000 C   0  0  0  0  0  0  0  0  0  0  0  0
    0.0984    0.4072    0.0000 C   0  0  0  0  0  0  0  0  0  0  0  0
    0.2700   -0.3998    0.0000 C   0  0  0  0  0  0  0  0  0  0  0  0
    1.0546   -0.6547    0.0000 C   0  0  0  0  0  0  0  0  0  0  0  0
  1  2  1  0  0  0  0
  2  3  2  0  0  0  0
  2 21  1  0  0  0  0
  3  4  1  0  0  0  0
  3 12  1  0  0  0  0
  4  5  2  0  0  0  0
  4  6  1  0  0  0  0
  6  7  2  0  0  0  0
  6 11  1  0  0  0  0
  7  8  1  0  0  0  0
  8  9  2  0  0  0  0
  9 10  1  0  0  0  0
 10 11  2  0  0  0  0
 12 13  2  0  0  0  0
 12 14  1  0  0  0  0
 14 15  1  0  0  0  0
 14 21  1  0  0  0  0
 15 16  2  0  0  0  0
 15 20  1  0  0  0  0
 16 17  1  0  0  0  0
 17 18  2  0  0  0  0
 18 19  1  0  0  0  0
 19 20  2  0  0  0  0
 21 22  1  0  0  0  0
 22 23  1  0  0  0  0
 23 24  1  0  0  0  0
 23 25  1  0  0  0  0
 25 26  1  0  0  0  0
 26 27  1  0  0  0  0
 26 31  1  0  0  0  0
 27 28  1  0  0  0  0
 28 29  1  0  0  0  0
 29 30  1  0  0  0  0
 29 32  1  0  0  0  0
 30 31  1  0  0  0  0
 32 33  2  0  0  0  0
 32 37  1  0  0  0  0
 33 34  1  0  0  0  0
 34 35  2  0  0  0  0
 35 36  1  0  0  0  0
 36 37  2  0  0  0  0
 37 38  1  0  0  0  0
M  END
$$$$

 OpenBabel12191814062D

 40 44  0  0  0  0  0  0  0  0999 V2000
   -2.0367   -2.9491    0.0000 C   0  0  0  0  0  0  0  0  0  0  0  0
   -2.0367   -3.7741    0.0000 C   0  0  0  0  0  0  0  0  0  0  0  0
   -1.3693   -4.2590    0.0000 C   0  0  0  0  0  0  0  0  0  0  0  0
   -0.5846   -4.0041    0.0000 C   0  0  0  0  0  0  0  0  0  0  0  0
   -0.4131   -3.1971    0.0000 O   0  0  0  0  0  0  0  0  0  0  0  0
    0.0284   -4.5561    0.0000 C   0  0  0  0  0  0  0  0  0  0  0  0
    0.8131   -4.3012    0.0000 C   0  0  0  0  0  0  0  0  0  0  0  0
    1.4262   -4.8532    0.0000 C   0  0  0  0  0  0  0  0  0  0  0  0
    2.2108   -4.5983    0.0000 C   0  0  0  0  0  0  0  0  0  0  0  0
    2.8239   -5.1503    0.0000 C   0  0  0  0  0  0  0  0  0  0  0  0
    2.6524   -5.9573    0.0000 C   0  0  0  0  0  0  0  0  0  0  0  0
    1.8677   -6.2122    0.0000 C   0  0  0  0  0  0  0  0  0  0  0  0
    1.2546   -5.6602    0.0000 C   0  0  0  0  0  0  0  0  0  0  0  0
   -1.6242   -5.0437    0.0000 C   0  0  0  0  0  0  0  0  0  0  0  0
   -1.1393   -5.7111    0.0000 O   0  0  0  0  0  0  0  0  0  0  0  0
   -2.4492   -5.0437    0.0000 N   0  0  0  0  0  0  0  0  0  0  0  0
   -2.9341   -5.7111    0.0000 C   0  0  0  0  0  0  0  0  0  0  0  0
   -2.5986   -6.4648    0.0000 C   0  0  0  0  0  0  0  0  0  0  0  0
   -3.0835   -7.1322    0.0000 C   0  0  0  0  0  0  0  0  0  0  0  0
   -3.9040   -7.0460    0.0000 C   0  0  0  0  0  0  0  0  0  0  0  0
   -4.2395   -6.2923    0.0000 C   0  0  0  0  0  0  0  0  0  0  0  0
   -3.7546   -5.6249    0.0000 C   0  0  0  0  0  0  0  0  0  0  0  0
   -2.7041   -4.2590    0.0000 N   0  0  0  0  0  0  0  0  0  0  0  0
   -3.4888   -4.0041    0.0000 C   0  0  0  0  0  0  0  0  0  0  0  0
   -3.6603   -3.1971    0.0000 C   0  0  3  0  0  0  0  0  0  0  0  0
   -3.0472   -2.6451    0.0000 O   0  0  0  0  0  0  0  0  0  0  0  0
   -4.4449   -2.9422    0.0000 C   0  0  0  0  0  0  0  0  0  0  0  0
   -5.0580   -3.4942    0.0000 N   0  0  0  0  0  0  0  0  0  0  0  0
   -4.8865   -4.3012    0.0000 C   0  0  0  0  0  0  0  0  0  0  0  0
   -5.4996   -4.8532    0.0000 C   0  0  0  0  0  0  0  0  0  0  0  0
   -6.2842   -4.5983    0.0000 N   0  0  0  0  0  0  0  0  0  0  0  0
   -6.4557   -3.7913    0.0000 C   0  0  0  0  0  0  0  0  0  0  0  0
   -5.8426   -3.2393    0.0000 C   0  0  0  0  0  0  0  0  0  0  0  0
   -6.8973   -5.1503    0.0000 C   0  0  0  0  0  0  0  0  0  0  0  0
   -6.7258   -5.9573    0.0000 C   0  0  0  0  0  0  0  0  0  0  0  0
   -7.3389   -6.5093    0.0000 C   0  0  0  0  0  0  0  0  0  0  0  0
   -8.1235   -6.2544    0.0000 C   0  0  0  0  0  0  0  0  0  0  0  0
   -8.2950   -5.4474    0.0000 C   0  0  0  0  0  0  0  0  0  0  0  0
   -7.6819   -4.8954    0.0000 C   0  0  0  0  0  0  0  0  0  0  0  0
   -7.8534   -4.0884    0.0000 C   0  0  0  0  0  0  0  0  0  0  0  0
  1  2  1  0  0  0  0
  2  3  2  0  0  0  0
  2 23  1  0  0  0  0
  3  4  1  0  0  0  0
  3 14  1  0  0  0  0
  4  5  2  0  0  0  0
  4  6  1  0  0  0  0
  6  7  1  0  0  0  0
  7  8  1  0  0  0  0
  8  9  2  0  0  0  0
  8 13  1  0  0  0  0
  9 10  1  0  0  0  0
 10 11  2  0  0  0  0
 11 12  1  0  0  0  0
 12 13  2  0  0  0  0
 14 15  2  0  0  0  0
 14 16  1  0  0  0  0
 16 17  1  0  0  0  0
 16 23  1  0  0  0  0
 17 18  2  0  0  0  0
 17 22  1  0  0  0  0
 18 19  1  0  0  0  0
 19 20  2  0  0  0  0
 20 21  1  0  0  0  0
 21 22  2  0  0  0  0
 23 24  1  0  0  0  0
 24 25  1  0  0  0  0
 25 26  1  0  0  0  0
 25 27  1  0  0  0  0
 27 28  1  0  0  0  0
 28 29  1  0  0  0  0
 28 33  1  0  0  0  0
 29 30  1  0  0  0  0
 30 31  1  0  0  0  0
 31 32  1  0  0  0  0
 31 34  1  0  0  0  0
 32 33  1  0  0  0  0
 34 35  2  0  0  0  0
 34 39  1  0  0  0  0
 35 36  1  0  0  0  0
 36 37  2  0  0  0  0
 37 38  1  0  0  0  0
 38 39  2  0  0  0  0
 39 40  1  0  0  0  0
M  END
$$$$

 OpenBabel12191814062D

 32 34  0  0  0  0  0  0  0  0999 V2000
    0.7145   -0.4125    0.0000 C   0  0  0  0  0  0  0  0  0  0  0  0
    0.7145   -1.2375    0.0000 C   0  0  0  0  0  0  0  0  0  0  0  0
    1.3819   -1.7224    0.0000 C   0  0  0  0  0  0  0  0  0  0  0  0
    2.1665   -1.4675    0.0000 C   0  0  0  0  0  0  0  0  0  0  0  0
    2.3381   -0.6605    0.0000 O   0  0  0  0  0  0  0  0  0  0  0  0
    2.7796   -2.0195    0.0000 C   0  0  0  0  0  0  0  0  0  0  0  0
    3.5642   -1.7646    0.0000 C   0  0  0  0  0  0  0  0  0  0  0  0
    4.1773   -2.3166    0.0000 C   0  0  0  0  0  0  0  0  0  0  0  0
    4.9620   -2.0617    0.0000 C   0  0  0  0  0  0  0  0  0  0  0  0
    5.5751   -2.6137    0.0000 C   0  0  0  0  0  0  0  0  0  0  0  0
    5.4035   -3.4207    0.0000 C   0  0  0  0  0  0  0  0  0  0  0  0
    4.6189   -3.6756    0.0000 C   0  0  0  0  0  0  0  0  0  0  0  0
    4.0058   -3.1236    0.0000 C   0  0  0  0  0  0  0  0  0  0  0  0
    1.1270   -2.5070    0.0000 C   0  0  0  0  0  0  0  0  0  0  0  0
    1.6119   -3.1745    0.0000 O   0  0  0  0  0  0  0  0  0  0  0  0
    0.3020   -2.5070    0.0000 N   0  0  0  0  0  0  0  0  0  0  0  0
   -0.1830   -3.1745    0.0000 C   0  0  0  0  0  0  0  0  0  0  0  0
    0.1526   -3.9282    0.0000 C   0  0  0  0  0  0  0  0  0  0  0  0
   -0.3323   -4.5956    0.0000 C   0  0  0  0  0  0  0  0  0  0  0  0
   -1.1528   -4.5094    0.0000 C   0  0  0  0  0  0  0  0  0  0  0  0
   -1.4884   -3.7557    0.0000 C   0  0  0  0  0  0  0  0  0  0  0  0
   -1.0034   -3.0882    0.0000 C   0  0  0  0  0  0  0  0  0  0  0  0
    0.0470   -1.7224    0.0000 N   0  0  0  0  0  0  0  0  0  0  0  0
   -0.7376   -1.4675    0.0000 C   0  0  0  0  0  0  0  0  0  0  0  0
   -0.9091   -0.6605    0.0000 C   0  0  3  0  0  0  0  0  0  0  0  0
   -0.2960   -0.1085    0.0000 O   0  0  0  0  0  0  0  0  0  0  0  0
   -1.6937   -0.4056    0.0000 C   0  0  0  0  0  0  0  0  0  0  0  0
   -1.8653    0.4014    0.0000 N   0  0  0  0  0  0  0  0  0  0  0  0
   -2.6499    0.6563    0.0000 C   0  0  0  0  0  0  0  0  0  0  0  0
   -3.4345    0.9113    0.0000 C   0  0  0  0  0  0  0  0  0  0  0  0
   -2.3949    1.4410    0.0000 C   0  0  0  0  0  0  0  0  0  0  0  0
   -2.9048   -0.1283    0.0000 C   0  0  0  0  0  0  0  0  0  0  0  0
  1  2  1  0  0  0  0
  2  3  2  0  0  0  0
  2 23  1  0  0  0  0
  3  4  1  0  0  0  0
  3 14  1  0  0  0  0
  4  5  2  0  0  0  0
  4  6  1  0  0  0  0
  6  7  1  0  0  0  0
  7  8  1  0  0  0  0
  8  9  2  0  0  0  0
  8 13  1  0  0  0  0
  9 10  1  0  0  0  0
 10 11  2  0  0  0  0
 11 12  1  0  0  0  0
 12 13  2  0  0  0  0
 14 15  2  0  0  0  0
 14 16  1  0  0  0  0
 16 17  1  0  0  0  0
 16 23  1  0  0  0  0
 17 18  2  0  0  0  0
 17 22  1  0  0  0  0
 18 19  1  0  0  0  0
 19 20  2  0  0  0  0
 20 21  1  0  0  0  0
 21 22  2  0  0  0  0
 23 24  1  0  0  0  0
 24 25  1  0  0  0  0
 25 26  1  0  0  0  0
 25 27  1  0  0  0  0
 27 28  1  0  0  0  0
 28 29  1  0  0  0  0
 29 30  1  0  0  0  0
 29 31  1  0  0  0  0
 29 32  1  0  0  0  0
M  END
$$$$

 OpenBabel12191814062D

 26 29  0  0  0  0  0  0  0  0999 V2000
    0.0000   -1.6500    0.0000 C   0  0  0  0  0  0  0  0  0  0  0  0
    0.7145   -1.2375    0.0000 C   0  0  3  0  0  0  0  0  0  0  0  0
    0.7145   -0.4125    0.0000 C   0  0  3  0  0  0  0  0  0  0  0  0
    0.0000    0.0000    0.0000 O   0  0  0  0  0  0  0  0  0  0  0  0
    1.4289    0.0000    0.0000 C   0  0  3  0  0  0  0  0  0  0  0  0
    1.4289    0.8250    0.0000 N   0  0  0  0  0  0  0  0  0  0  0  0
    0.7615    1.3099    0.0000 C   0  0  0  0  0  0  0  0  0  0  0  0
    1.0164    2.0945    0.0000 C   0  0  0  0  0  0  0  0  0  0  0  0
    1.8414    2.0945    0.0000 C   0  0  0  0  0  0  0  0  0  0  0  0
    2.0964    1.3099    0.0000 C   0  0  0  0  0  0  0  0  0  0  0  0
    2.1434   -0.4125    0.0000 C   0  0  0  0  0  0  0  0  0  0  0  0
    2.8579    0.0000    0.0000 C   0  0  0  0  0  0  0  0  0  0  0  0
    3.5724   -0.4125    0.0000 C   0  0  0  0  0  0  0  0  0  0  0  0
    3.5724   -1.2375    0.0000 C   0  0  0  0  0  0  0  0  0  0  0  0
    2.8579   -1.6500    0.0000 C   0  0  0  0  0  0  0  0  0  0  0  0
    2.1434   -1.2375    0.0000 C   0  0  0  0  0  0  0  0  0  0  0  0
    1.4289   -1.6500    0.0000 N   0  0  0  0  0  0  0  0  0  0  0  0
    1.4289   -2.4750    0.0000 C   0  0  0  0  0  0  0  0  0  0  0  0
    2.1434   -2.8875    0.0000 O   0  0  0  0  0  0  0  0  0  0  0  0
    0.7145   -2.8875    0.0000 C   0  0  0  0  0  0  0  0  0  0  0  0
    0.7145   -3.7125    0.0000 C   0  0  0  0  0  0  0  0  0  0  0  0
    0.0000   -4.1250    0.0000 C   0  0  0  0  0  0  0  0  0  0  0  0
   -0.7145   -3.7125    0.0000 C   0  0  0  0  0  0  0  0  0  0  0  0
   -1.4289   -4.1250    0.0000 C   0  0  0  0  0  0  0  0  0  0  0  0
   -0.7145   -2.8875    0.0000 C   0  0  0  0  0  0  0  0  0  0  0  0
    0.0000   -2.4750    0.0000 C   0  0  0  0  0  0  0  0  0  0  0  0
  1  2  1  0  0  0  0
  2  3  1  0  0  0  0
  2 17  1  0  0  0  0
  3  4  1  0  0  0  0
  3  5  1  0  0  0  0
  5  6  1  0  0  0  0
  5 11  1  0  0  0  0
  6  7  1  0  0  0  0
  6 10  1  0  0  0  0
  7  8  1  0  0  0  0
  8  9  1  0  0  0  0
  9 10  1  0  0  0  0
 11 12  2  0  0  0  0
 11 16  1  0  0  0  0
 12 13  1  0  0  0  0
 13 14  2  0  0  0  0
 14 15  1  0  0  0  0
 15 16  2  0  0  0  0
 16 17  1  0  0  0  0
 17 18  1  0  0  0  0
 18 19  2  0  0  0  0
 18 20  1  0  0  0  0
 20 21  2  0  0  0  0
 20 26  1  0  0  0  0
 21 22  1  0  0  0  0
 22 23  2  0  0  0  0
 23 24  1  0  0  0  0
 23 25  1  0  0  0  0
 25 26  2  0  0  0  0
M  END
$$$$

 OpenBabel12191814062D

 34 38  0  0  0  0  0  0  0  0999 V2000
    0.0000   -1.6500    0.0000 C   0  0  0  0  0  0  0  0  0  0  0  0
    0.7145   -1.2375    0.0000 C   0  0  3  0  0  0  0  0  0  0  0  0
    0.7145   -0.4125    0.0000 C   0  0  3  0  0  0  0  0  0  0  0  0
    0.0000    0.0000    0.0000 O   0  0  0  0  0  0  0  0  0  0  0  0
    1.4289    0.0000    0.0000 C   0  0  3  0  0  0  0  0  0  0  0  0
    1.4289    0.8250    0.0000 N   0  0  0  0  0  0  0  0  0  0  0  0
    0.7145    1.2375    0.0000 C   0  0  0  0  0  0  0  0  0  0  0  0
    0.7145    2.0625    0.0000 C   0  0  0  0  0  0  0  0  0  0  0  0
    1.4289    2.4750    0.0000 N   0  0  0  0  0  0  0  0  0  0  0  0
    1.4289    3.3000    0.0000 C   0  0  0  0  0  0  0  0  0  0  0  0
    2.1434    3.7125    0.0000 C   0  0  0  0  0  0  0  0  0  0  0  0
    2.1434    4.5375    0.0000 C   0  0  0  0  0  0  0  0  0  0  0  0
    2.8579    4.9500    0.0000 C   0  0  0  0  0  0  0  0  0  0  0  0
    3.5724    4.5375    0.0000 C   0  0  0  0  0  0  0  0  0  0  0  0
    3.5724    3.7125    0.0000 C   0  0  0  0  0  0  0  0  0  0  0  0
    2.8579    3.3000    0.0000 C   0  0  0  0  0  0  0  0  0  0  0  0
    2.1434    2.0625    0.0000 C   0  0  0  0  0  0  0  0  0  0  0  0
    2.1434    1.2375    0.0000 C   0  0  0  0  0  0  0  0  0  0  0  0
    2.1434   -0.4125    0.0000 C   0  0  0  0  0  0  0  0  0  0  0  0
    2.8579    0.0000    0.0000 C   0  0  0  0  0  0  0  0  0  0  0  0
    3.5724   -0.4125    0.0000 C   0  0  0  0  0  0  0  0  0  0  0  0
    3.5724   -1.2375    0.0000 C   0  0  0  0  0  0  0  0  0  0  0  0
    2.8579   -1.6500    0.0000 C   0  0  0  0  0  0  0  0  0  0  0  0
    2.1434   -1.2375    0.0000 C   0  0  0  0  0  0  0  0  0  0  0  0
    1.4289   -1.6500    0.0000 N   0  0  0  0  0  0  0  0  0  0  0  0
    1.4289   -2.4750    0.0000 C   0  0  0  0  0  0  0  0  0  0  0  0
    2.1434   -2.8875    0.0000 O   0  0  0  0  0  0  0  0  0  0  0  0
    0.7145   -2.8875    0.0000 C   0  0  0  0  0  0  0  0  0  0  0  0
    0.7145   -3.7125    0.0000 C   0  0  0  0  0  0  0  0  0  0  0  0
    0.0000   -4.1250    0.0000 C   0  0  0  0  0  0  0  0  0  0  0  0
   -0.7145   -3.7125    0.0000 C   0  0  0  0  0  0  0  0  0  0  0  0
   -1.4289   -4.1250    0.0000 C   0  0  0  0  0  0  0  0  0  0  0  0
   -0.7145   -2.8875    0.0000 C   0  0  0  0  0  0  0  0  0  0  0  0
    0.0000   -2.4750    0.0000 C   0  0  0  0  0  0  0  0  0  0  0  0
  1  2  1  0  0  0  0
  2  3  1  0  0  0  0
  2 25  1  0  0  0  0
  3  4  1  0  0  0  0
  3  5  1  0  0  0  0
  5  6  1  0  0  0  0
  5 19  1  0  0  0  0
  6  7  1  0  0  0  0
  6 18  1  0  0  0  0
  7  8  1  0  0  0  0
  8  9  1  0  0  0  0
  9 10  1  0  0  0  0
  9 17  1  0  0  0  0
 10 11  1  0  0  0  0
 11 12  2  0  0  0  0
 11 16  1  0  0  0  0
 12 13  1  0  0  0  0
 13 14  2  0  0  0  0
 14 15  1  0  0  0  0
 15 16  2  0  0  0  0
 17 18  1  0  0  0  0
 19 20  2  0  0  0  0
 19 24  1  0  0  0  0
 20 21  1  0  0  0  0
 21 22  2  0  0  0  0
 22 23  1  0  0  0  0
 23 24  2  0  0  0  0
 24 25  1  0  0  0  0
 25 26  1  0  0  0  0
 26 27  2  0  0  0  0
 26 28  1  0  0  0  0
 28 29  2  0  0  0  0
 28 34  1  0  0  0  0
 29 30  1  0  0  0  0
 30 31  2  0  0  0  0
 31 32  1  0  0  0  0
 31 33  1  0  0  0  0
 33 34  2  0  0  0  0
M  END
$$$$

 OpenBabel12191814062D

 29 32  0  0  0  0  0  0  0  0999 V2000
    0.0000   -1.6500    0.0000 C   0  0  0  0  0  0  0  0  0  0  0  0
    0.7145   -1.2375    0.0000 C   0  0  3  0  0  0  0  0  0  0  0  0
    0.7145   -0.4125    0.0000 C   0  0  3  0  0  0  0  0  0  0  0  0
    0.0000    0.0000    0.0000 O   0  0  0  0  0  0  0  0  0  0  0  0
    1.4289    0.0000    0.0000 C   0  0  3  0  0  0  0  0  0  0  0  0
    1.4289    0.8250    0.0000 N   0  0  0  0  0  0  0  0  0  0  0  0
    2.1434    1.2375    0.0000 C   0  0  0  0  0  0  0  0  0  0  0  0
    2.1434    2.0625    0.0000 C   0  0  0  0  0  0  0  0  0  0  0  0
    1.4289    2.4750    0.0000 C   0  0  0  0  0  0  0  0  0  0  0  0
    1.4289    3.3000    0.0000 C   0  0  0  0  0  0  0  0  0  0  0  0
    2.1434    3.7125    0.0000 C   0  0  0  0  0  0  0  0  0  0  0  0
    2.8579    3.3000    0.0000 C   0  0  0  0  0  0  0  0  0  0  0  0
    2.8579    2.4750    0.0000 C   0  0  0  0  0  0  0  0  0  0  0  0
    2.1434   -0.4125    0.0000 C   0  0  0  0  0  0  0  0  0  0  0  0
    2.8579    0.0000    0.0000 C   0  0  0  0  0  0  0  0  0  0  0  0
    3.5724   -0.4125    0.0000 C   0  0  0  0  0  0  0  0  0  0  0  0
    3.5724   -1.2375    0.0000 C   0  0  0  0  0  0  0  0  0  0  0  0
    2.8579   -1.6500    0.0000 C   0  0  0  0  0  0  0  0  0  0  0  0
    2.1434   -1.2375    0.0000 C   0  0  0  0  0  0  0  0  0  0  0  0
    1.4289   -1.6500    0.0000 N   0  0  0  0  0  0  0  0  0  0  0  0
    1.4289   -2.4750    0.0000 C   0  0  0  0  0  0  0  0  0  0  0  0
    2.1434   -2.8875    0.0000 O   0  0  0  0  0  0  0  0  0  0  0  0
    0.7145   -2.8875    0.0000 C   0  0  0  0  0  0  0  0  0  0  0  0
    0.7145   -3.7125    0.0000 C   0  0  0  0  0  0  0  0  0  0  0  0
    0.0000   -4.1250    0.0000 C   0  0  0  0  0  0  0  0  0  0  0  0
   -0.7145   -3.7125    0.0000 C   0  0  0  0  0  0  0  0  0  0  0  0
   -1.4289   -4.1250    0.0000 C   0  0  0  0  0  0  0  0  0  0  0  0
   -0.7145   -2.8875    0.0000 C   0  0  0  0  0  0  0  0  0  0  0  0
    0.0000   -2.4750    0.0000 C   0  0  0  0  0  0  0  0  0  0  0  0
  1  2  1  0  0  0  0
  2  3  1  0  0  0  0
  2 20  1  0  0  0  0
  3  4  1  0  0  0  0
  3  5  1  0  0  0  0
  5  6  1  0  0  0  0
  5 14  1  0  0  0  0
  6  7  1  0  0  0  0
  7  8  1  0  0  0  0
  8  9  2  0  0  0  0
  8 13  1  0  0  0  0
  9 10  1  0  0  0  0
 10 11  2  0  0  0  0
 11 12  1  0  0  0  0
 12 13  2  0  0  0  0
 14 15  2  0  0  0  0
 14 19  1  0  0  0  0
 15 16  1  0  0  0  0
 16 17  2  0  0  0  0
 17 18  1  0  0  0  0
 18 19  2  0  0  0  0
 19 20  1  0  0  0  0
 20 21  1  0  0  0  0
 21 22  2  0  0  0  0
 21 23  1  0  0  0  0
 23 24  2  0  0  0  0
 23 29  1  0  0  0  0
 24 25  1  0  0  0  0
 25 26  2  0  0  0  0
 26 27  1  0  0  0  0
 26 28  1  0  0  0  0
 28 29  2  0  0  0  0
M  END
$$$$

 OpenBabel12191814062D

 37 40  0  0  0  0  0  0  0  0999 V2000
    6.1996    1.9643    0.0000 C   0  0  0  0  0  0  0  0  0  0  0  0
    5.9193    1.1884    0.0000 C   0  0  3  0  0  0  0  0  0  0  0  0
    6.4511    0.5577    0.0000 C   0  0  3  0  0  0  0  0  0  0  0  0
    7.2632    0.7029    0.0000 O   0  0  0  0  0  0  0  0  0  0  0  0
    6.1708   -0.2182    0.0000 C   0  0  0  0  0  0  0  0  0  0  0  0
    5.3587   -0.3634    0.0000 C   0  0  0  0  0  0  0  0  0  0  0  0
    4.8269    0.2673    0.0000 C   0  0  3  0  0  0  0  0  0  0  0  0
    4.5466   -0.5086    0.0000 C   0  0  0  0  0  0  0  0  0  0  0  0
    5.1072    1.0432    0.0000 C   0  0  3  0  0  0  0  0  0  0  0  0
    4.5754    1.6739    0.0000 C   0  0  0  0  0  0  0  0  0  0  0  0
    3.7633    1.5287    0.0000 C   0  0  0  0  0  0  0  0  0  0  0  0
    3.4830    0.7528    0.0000 C   0  0  3  0  0  0  0  0  0  0  0  0
    2.9511    1.3835    0.0000 C   0  0  0  0  0  0  0  0  0  0  0  0
    4.0148    0.1221    0.0000 C   0  0  3  0  0  0  0  0  0  0  0  0
    3.7345   -0.6539    0.0000 C   0  0  3  0  0  0  0  0  0  0  0  0
    4.2663   -1.2846    0.0000 O   0  0  0  0  0  0  0  0  0  0  0  0
    2.9224   -0.7991    0.0000 C   0  0  0  0  0  0  0  0  0  0  0  0
    2.3905   -0.1684    0.0000 C   0  0  3  0  0  0  0  0  0  0  0  0
    1.5660   -0.1416    0.0000 C   0  0  0  0  0  0  0  0  0  0  0  0
    1.3367    0.6509    0.0000 C   0  0  3  0  0  0  0  0  0  0  0  0
    2.0195    1.1139    0.0000 C   0  0  0  0  0  0  0  0  0  0  0  0
    2.6708    0.6076    0.0000 C   0  0  3  0  0  0  0  0  0  0  0  0
    2.6113    1.4304    0.0000 C   0  0  0  0  0  0  0  0  0  0  0  0
    0.5607    0.9312    0.0000 O   0  0  0  0  0  0  0  0  0  0  0  0
    0.4155    1.7434    0.0000 C   0  0  0  0  0  0  0  0  0  0  0  0
   -0.3604    2.0237    0.0000 C   0  0  0  0  0  0  0  0  0  0  0  0
    1.0462    2.2752    0.0000 O   0  0  0  0  0  0  0  0  0  0  0  0
    1.0596   -0.7929    0.0000 C   0  0  0  0  0  0  0  0  0  0  0  0
    1.3705   -1.5571    0.0000 C   0  0  0  0  0  0  0  0  0  0  0  0
    0.8642   -2.2084    0.0000 C   0  0  0  0  0  0  0  0  0  0  0  0
    1.1750   -2.9726    0.0000 C   0  0  0  0  0  0  0  0  0  0  0  0
    0.6687   -3.6239    0.0000 C   0  0  0  0  0  0  0  0  0  0  0  0
    0.9796   -4.3881    0.0000 C   0  0  0  0  0  0  0  0  0  0  0  0
   -0.1486   -3.5111    0.0000 C   0  0  0  0  0  0  0  0  0  0  0  0
    0.2424   -0.6800    0.0000 C   0  0  0  0  0  0  0  0  0  0  0  0
   -0.2640   -1.3314    0.0000 O   0  0  0  0  0  0  0  0  0  0  0  0
   -0.0685    0.0841    0.0000 O   0  0  0  0  0  0  0  0  0  0  0  0
  1  2  1  0  0  0  0
  2  3  1  0  0  0  0
  2  9  1  0  0  0  0
  3  4  1  0  0  0  0
  3  5  1  0  0  0  0
  5  6  1  0  0  0  0
  6  7  1  0  0  0  0
  7  8  1  0  0  0  0
  7  9  1  0  0  0  0
  7 14  1  0  0  0  0
  9 10  1  0  0  0  0
 10 11  1  0  0  0  0
 11 12  1  0  0  0  0
 12 13  1  0  0  0  0
 12 14  1  0  0  0  0
 12 22  1  0  0  0  0
 14 15  1  0  0  0  0
 15 16  1  0  0  0  0
 15 17  1  0  0  0  0
 17 18  1  0  0  0  0
 18 19  1  0  0  0  0
 18 22  1  0  0  0  0
 19 20  1  0  0  0  0
 19 28  2  0  0  0  0
 20 21  1  0  0  0  0
 20 24  1  0  0  0  0
 21 22  1  0  0  0  0
 22 23  1  0  0  0  0
 24 25  1  0  0  0  0
 25 26  1  0  0  0  0
 25 27  2  0  0  0  0
 28 29  1  0  0  0  0
 28 35  1  0  0  0  0
 29 30  1  0  0  0  0
 30 31  1  0  0  0  0
 31 32  2  0  0  0  0
 32 33  1  0  0  0  0
 32 34  1  0  0  0  0
 35 36  1  0  0  0  0
 35 37  2  0  0  0  0
M  END
$$$$

 OpenBabel12191814062D

 40 43  0  0  0  0  0  0  0  0999 V2000
    1.3480   -4.8099    0.0000 C   0  0  0  0  0  0  0  0  0  0  0  0
    0.5230   -4.8099    0.0000 C   0  0  0  0  0  0  0  0  0  0  0  0
    0.1105   -5.5243    0.0000 C   0  0  0  0  0  0  0  0  0  0  0  0
    0.5230   -6.2388    0.0000 O   0  0  0  0  0  0  0  0  0  0  0  0
   -0.7145   -5.5243    0.0000 C   0  0  0  0  0  0  0  0  0  0  0  0
   -1.1270   -4.8099    0.0000 C   0  0  0  0  0  0  0  0  0  0  0  0
   -0.7145   -4.0954    0.0000 C   0  0  0  0  0  0  0  0  0  0  0  0
    0.1105   -4.0954    0.0000 C   0  0  0  0  0  0  0  0  0  0  0  0
    0.5230   -3.3809    0.0000 C   0  0  0  0  0  0  0  0  0  0  0  0
    1.3480   -3.3809    0.0000 O   0  0  0  0  0  0  0  0  0  0  0  0
    0.1105   -2.6664    0.0000 N   0  0  0  0  0  0  0  0  0  0  0  0
    0.5230   -1.9520    0.0000 C   0  0  3  0  0  0  0  0  0  0  0  0
    0.1105   -1.2375    0.0000 C   0  0  0  0  0  0  0  0  0  0  0  0
   -0.7145   -1.2375    0.0000 S   0  0  0  0  0  0  0  0  0  0  0  0
   -1.1270   -1.9520    0.0000 C   0  0  0  0  0  0  0  0  0  0  0  0
   -0.7145   -2.6664    0.0000 C   0  0  0  0  0  0  0  0  0  0  0  0
   -1.1270   -3.3809    0.0000 C   0  0  0  0  0  0  0  0  0  0  0  0
   -1.9520   -3.3809    0.0000 C   0  0  0  0  0  0  0  0  0  0  0  0
   -2.3645   -2.6664    0.0000 C   0  0  0  0  0  0  0  0  0  0  0  0
   -1.9520   -1.9520    0.0000 C   0  0  0  0  0  0  0  0  0  0  0  0
    1.3480   -1.9520    0.0000 C   0  0  3  0  0  0  0  0  0  0  0  0
    1.7605   -2.6664    0.0000 O   0  0  0  0  0  0  0  0  0  0  0  0
    1.7605   -1.2375    0.0000 C   0  0  0  0  0  0  0  0  0  0  0  0
    1.3480   -0.5230    0.0000 N   0  0  0  0  0  0  0  0  0  0  0  0
    0.5230   -0.5230    0.0000 C   0  0  0  0  0  0  0  0  0  0  0  0
    0.1105    0.1914    0.0000 C   0  0  3  0  0  0  0  0  0  0  0  0
   -0.7145    0.1914    0.0000 C   0  0  0  0  0  0  0  0  0  0  0  0
   -1.1270    0.9059    0.0000 C   0  0  0  0  0  0  0  0  0  0  0  0
   -0.7145    1.6204    0.0000 C   0  0  0  0  0  0  0  0  0  0  0  0
    0.1105    1.6204    0.0000 C   0  0  0  0  0  0  0  0  0  0  0  0
    0.5230    0.9059    0.0000 C   0  0  3  0  0  0  0  0  0  0  0  0
    1.3480    0.9059    0.0000 C   0  0  0  0  0  0  0  0  0  0  0  0
    1.7605    0.1914    0.0000 C   0  0  3  0  0  0  0  0  0  0  0  0
    2.5855    0.1914    0.0000 C   0  0  0  0  0  0  0  0  0  0  0  0
    2.9980   -0.5230    0.0000 O   0  0  0  0  0  0  0  0  0  0  0  0
    2.9980    0.9059    0.0000 N   0  0  0  0  0  0  0  0  0  0  0  0
    2.5855    1.6204    0.0000 C   0  0  0  0  0  0  0  0  0  0  0  0
    3.3000    2.0329    0.0000 C   0  0  0  0  0  0  0  0  0  0  0  0
    1.8711    1.2079    0.0000 C   0  0  0  0  0  0  0  0  0  0  0  0
    2.1730    2.3349    0.0000 C   0  0  0  0  0  0  0  0  0  0  0  0
  1  2  1  0  0  0  0
  2  3  2  0  0  0  0
  2  8  1  0  0  0  0
  3  4  1  0  0  0  0
  3  5  1  0  0  0  0
  5  6  2  0  0  0  0
  6  7  1  0  0  0  0
  7  8  2  0  0  0  0
  8  9  1  0  0  0  0
  9 10  2  0  0  0  0
  9 11  1  0  0  0  0
 11 12  1  0  0  0  0
 12 13  1  0  0  0  0
 12 21  1  0  0  0  0
 13 14  1  0  0  0  0
 14 15  1  0  0  0  0
 15 16  2  0  0  0  0
 15 20  1  0  0  0  0
 16 17  1  0  0  0  0
 17 18  2  0  0  0  0
 18 19  1  0  0  0  0
 19 20  2  0  0  0  0
 21 22  1  0  0  0  0
 21 23  1  0  0  0  0
 23 24  1  0  0  0  0
 24 25  1  0  0  0  0
 24 33  1  0  0  0  0
 25 26  1  0  0  0  0
 26 27  1  0  0  0  0
 26 31  1  0  0  0  0
 27 28  1  0  0  0  0
 28 29  1  0  0  0  0
 29 30  1  0  0  0  0
 30 31  1  0  0  0  0
 31 32  1  0  0  0  0
 32 33  1  0  0  0  0
 33 34  1  0  0  0  0
 34 35  2  0  0  0  0
 34 36  1  0  0  0  0
 36 37  1  0  0  0  0
 37 38  1  0  0  0  0
 37 39  1  0  0  0  0
 37 40  1  0  0  0  0
M  END
$$$$

 OpenBabel12191814062D

 29 32  0  0  0  0  0  0  0  0999 V2000
    0.0000   -1.6500    0.0000 C   0  0  0  0  0  0  0  0  0  0  0  0
    0.7145   -1.2375    0.0000 C   0  0  0  0  0  0  0  0  0  0  0  0
    0.7145   -0.4125    0.0000 C   0  0  0  0  0  0  0  0  0  0  0  0
    1.4289    0.0000    0.0000 O   0  0  0  0  0  0  0  0  0  0  0  0
    2.1434   -0.4125    0.0000 C   0  0  0  0  0  0  0  0  0  0  0  0
    2.8579    0.0000    0.0000 C   0  0  0  0  0  0  0  0  0  0  0  0
    3.5724   -0.4125    0.0000 C   0  0  0  0  0  0  0  0  0  0  0  0
    3.5724   -1.2375    0.0000 C   0  0  0  0  0  0  0  0  0  0  0  0
    2.8579   -1.6500    0.0000 C   0  0  0  0  0  0  0  0  0  0  0  0
    2.1434   -1.2375    0.0000 C   0  0  0  0  0  0  0  0  0  0  0  0
    1.4289   -1.6500    0.0000 C   0  0  0  0  0  0  0  0  0  0  0  0
    1.4289   -2.4750    0.0000 O   0  0  0  0  0  0  0  0  0  0  0  0
    2.8579    0.8250    0.0000 C   0  0  0  0  0  0  0  0  0  0  0  0
    2.1434    1.2375    0.0000 O   0  0  0  0  0  0  0  0  0  0  0  0
    3.5724    1.2375    0.0000 O   0  0  0  0  0  0  0  0  0  0  0  0
    3.5724    2.0625    0.0000 C   0  0  0  0  0  0  0  0  0  0  0  0
    4.2868    2.4750    0.0000 C   0  0  0  0  0  0  0  0  0  0  0  0
    4.2868    3.3000    0.0000 N   0  0  0  0  0  0  0  0  0  0  0  0
    3.5724    3.7125    0.0000 C   0  0  0  0  0  0  0  0  0  0  0  0
    3.5724    4.5375    0.0000 C   0  0  0  0  0  0  0  0  0  0  0  0
    4.2868    4.9500    0.0000 C   0  0  0  0  0  0  0  0  0  0  0  0
    5.0013    4.5375    0.0000 C   0  0  0  0  0  0  0  0  0  0  0  0
    5.0013    3.7125    0.0000 C   0  0  0  0  0  0  0  0  0  0  0  0
    0.0000    0.0000    0.0000 C   0  0  0  0  0  0  0  0  0  0  0  0
   -0.7145   -0.4125    0.0000 C   0  0  0  0  0  0  0  0  0  0  0  0
   -1.4289   -0.0000    0.0000 C   0  0  0  0  0  0  0  0  0  0  0  0
   -1.4289    0.8250    0.0000 C   0  0  0  0  0  0  0  0  0  0  0  0
   -0.7145    1.2375    0.0000 C   0  0  0  0  0  0  0  0  0  0  0  0
    0.0000    0.8250    0.0000 C   0  0  0  0  0  0  0  0  0  0  0  0
  1  2  1  0  0  0  0
  2  3  2  0  0  0  0
  2 11  1  0  0  0  0
  3  4  1  0  0  0  0
  3 24  1  0  0  0  0
  4  5  1  0  0  0  0
  5  6  2  0  0  0  0
  5 10  1  0  0  0  0
  6  7  1  0  0  0  0
  6 13  1  0  0  0  0
  7  8  2  0  0  0  0
  8  9  1  0  0  0  0
  9 10  2  0  0  0  0
 10 11  1  0  0  0  0
 11 12  2  0  0  0  0
 13 14  2  0  0  0  0
 13 15  1  0  0  0  0
 15 16  1  0  0  0  0
 16 17  1  0  0  0  0
 17 18  1  0  0  0  0
 18 19  1  0  0  0  0
 18 23  1  0  0  0  0
 19 20  1  0  0  0  0
 20 21  1  0  0  0  0
 21 22  1  0  0  0  0
 22 23  1  0  0  0  0
 24 25  2  0  0  0  0
 24 29  1  0  0  0  0
 25 26  1  0  0  0  0
 26 27  2  0  0  0  0
 27 28  1  0  0  0  0
 28 29  2  0  0  0  0
M  END
$$$$

 OpenBabel12191814062D

 36 40  0  0  0  0  0  0  0  0999 V2000
    5.1227   -2.1144    0.0000 C   0  0  0  0  0  0  0  0  0  0  0  0
    4.5353   -1.5351    0.0000 C   0  0  3  0  0  0  0  0  0  0  0  0
    3.7399   -1.7542    0.0000 C   0  0  3  0  0  0  0  0  0  0  0  0
    3.3705   -2.4919    0.0000 C   0  0  3  0  0  0  0  0  0  0  0  0
    3.7502   -3.2243    0.0000 C   0  0  0  0  0  0  0  0  0  0  0  0
    3.3057   -3.9193    0.0000 C   0  0  0  0  0  0  0  0  0  0  0  0
    3.6854   -4.6518    0.0000 C   0  0  0  0  0  0  0  0  0  0  0  0
    3.2409   -5.3468    0.0000 C   0  0  0  0  0  0  0  0  0  0  0  0
    2.4167   -5.3094    0.0000 C   0  0  0  0  0  0  0  0  0  0  0  0
    2.0371   -4.5769    0.0000 C   0  0  0  0  0  0  0  0  0  0  0  0
    2.4815   -3.8819    0.0000 C   0  0  0  0  0  0  0  0  0  0  0  0
    2.5548   -2.3685    0.0000 N   0  0  0  0  0  0  0  0  0  0  0  0
    2.5215   -1.6122    0.0000 C   0  0  0  0  0  0  0  0  0  0  0  0
    1.6824   -1.1852    0.0000 O   0  0  0  0  0  0  0  0  0  0  0  0
    3.1525   -1.1749    0.0000 C   0  0  3  0  0  0  0  0  0  0  0  0
    2.2934   -1.4522    0.0000 O   0  0  0  0  0  0  0  0  0  0  0  0
    1.8489   -2.1472    0.0000 C   0  0  0  0  0  0  0  0  0  0  0  0
    2.1499   -2.9153    0.0000 O   0  0  0  0  0  0  0  0  0  0  0  0
    1.0505   -1.9393    0.0000 O   0  0  0  0  0  0  0  0  0  0  0  0
    1.0016   -1.1157    0.0000 C   0  0  0  0  0  0  0  0  0  0  0  0
    0.3869   -0.4545    0.0000 C   0  0  0  0  0  0  0  0  0  0  0  0
    0.5949    0.3439    0.0000 C   0  0  3  0  0  0  0  0  0  0  0  0
   -0.2274    0.4100    0.0000 C   0  0  0  0  0  0  0  0  0  0  0  0
    0.5173    1.1652    0.0000 O   0  0  0  0  0  0  0  0  0  0  0  0
    1.3903    0.5629    0.0000 C   0  0  0  0  0  0  0  0  0  0  0  0
    1.9777   -0.0163    0.0000 O   0  0  0  0  0  0  0  0  0  0  0  0
    1.5982    1.3613    0.0000 C   0  0  3  0  0  0  0  0  0  0  0  0
    1.0108    1.9406    0.0000 C   0  0  0  0  0  0  0  0  0  0  0  0
    2.3936    1.5804    0.0000 C   0  0  0  0  0  0  0  0  0  0  0  0
    2.9810    1.0011    0.0000 C   0  0  0  0  0  0  0  0  0  0  0  0
    2.7731    0.2027    0.0000 C   0  0  0  0  0  0  0  0  0  0  0  0
    3.3605   -0.3765    0.0000 C   0  0  3  0  0  0  0  0  0  0  0  0
    4.1559   -0.1575    0.0000 C   0  0  3  0  0  0  0  0  0  0  0  0
    4.9513    0.0616    0.0000 O   0  0  0  0  0  0  0  0  0  0  0  0
    4.7433   -0.7368    0.0000 C   0  0  3  0  0  0  0  0  0  0  0  0
    5.5416   -0.9447    0.0000 C   0  0  0  0  0  0  0  0  0  0  0  0
  1  2  1  0  0  0  0
  2  3  1  0  0  0  0
  2 35  1  0  0  0  0
  3  4  1  0  0  0  0
  3 15  1  0  0  0  0
  4  5  1  0  0  0  0
  4 12  1  0  0  0  0
  5  6  1  0  0  0  0
  6  7  2  0  0  0  0
  6 11  1  0  0  0  0
  7  8  1  0  0  0  0
  8  9  2  0  0  0  0
  9 10  1  0  0  0  0
 10 11  2  0  0  0  0
 12 13  1  0  0  0  0
 13 14  2  0  0  0  0
 13 15  1  0  0  0  0
 15 16  1  0  0  0  0
 15 32  1  0  0  0  0
 16 17  1  0  0  0  0
 17 18  2  0  0  0  0
 17 19  1  0  0  0  0
 19 20  1  0  0  0  0
 20 21  2  0  0  0  0
 21 22  1  0  0  0  0
 22 23  1  0  0  0  0
 22 24  1  0  0  0  0
 22 25  1  0  0  0  0
 25 26  2  0  0  0  0
 25 27  1  0  0  0  0
 27 28  1  0  0  0  0
 27 29  1  0  0  0  0
 29 30  1  0  0  0  0
 30 31  2  0  0  0  0
 31 32  1  0  0  0  0
 32 33  1  0  0  0  0
 33 34  1  0  0  0  0
 33 35  1  0  0  0  0
 34 35  1  0  0  0  0
 35 36  1  0  0  0  0
M  END
$$$$

 OpenBabel12191814062D

 21 23  0  0  0  0  0  0  0  0999 V2000
    2.2581    0.8137    0.0000 C   0  0  0  0  0  0  0  0  0  0  0  0
    1.4717    0.5641    0.0000 C   0  0  3  0  0  0  0  0  0  0  0  0
    0.8760   -0.3738    0.0000 C   0  0  3  0  0  0  0  0  0  0  0  0
    1.6989   -0.3147    0.0000 C   0  0  0  0  0  0  0  0  0  0  0  0
    2.2389    0.3090    0.0000 C   0  0  0  0  0  0  0  0  0  0  0  0
    2.9811   -0.0512    0.0000 C   0  0  0  0  0  0  0  0  0  0  0  0
    3.6642    0.4115    0.0000 C   0  0  0  0  0  0  0  0  0  0  0  0
    3.6050    1.2344    0.0000 C   0  0  0  0  0  0  0  0  0  0  0  0
    4.2881    1.6971    0.0000 O   0  0  0  0  0  0  0  0  0  0  0  0
    2.8628    1.5946    0.0000 C   0  0  0  0  0  0  0  0  0  0  0  0
    2.1797    1.1319    0.0000 C   0  0  0  0  0  0  0  0  0  0  0  0
    1.5561    1.6719    0.0000 C   0  0  3  0  0  0  0  0  0  0  0  0
    1.8163    2.4548    0.0000 C   0  0  0  0  0  0  0  0  0  0  0  0
    0.7332    1.6128    0.0000 C   0  0  0  0  0  0  0  0  0  0  0  0
    0.1931    0.9891    0.0000 C   0  0  0  0  0  0  0  0  0  0  0  0
    0.2523    0.1662    0.0000 N   0  0  0  0  0  0  0  0  0  0  0  0
   -0.4853   -0.2033    0.0000 C   0  0  0  0  0  0  0  0  0  0  0  0
   -1.1741    0.2507    0.0000 C   0  0  0  0  0  0  0  0  0  0  0  0
   -1.1254    1.0742    0.0000 C   0  0  0  0  0  0  0  0  0  0  0  0
   -1.8142    1.5282    0.0000 C   0  0  0  0  0  0  0  0  0  0  0  0
   -0.3878    1.4438    0.0000 C   0  0  0  0  0  0  0  0  0  0  0  0
  1  2  1  0  0  0  0
  2  3  1  0  0  0  0
  2 12  1  0  0  0  0
  3  4  1  0  0  0  0
  3 16  1  0  0  0  0
  4  5  1  0  0  0  0
  5  6  2  0  0  0  0
  5 11  1  0  0  0  0
  6  7  1  0  0  0  0
  7  8  2  0  0  0  0
  8  9  1  0  0  0  0
  8 10  1  0  0  0  0
 10 11  2  0  0  0  0
 11 12  1  0  0  0  0
 12 13  1  0  0  0  0
 12 14  1  0  0  0  0
 14 15  1  0  0  0  0
 15 16  1  0  0  0  0
 16 17  1  0  0  0  0
 17 18  1  0  0  0  0
 18 19  2  0  0  0  0
 19 20  1  0  0  0  0
 19 21  1  0  0  0  0
M  END
$$$$

 OpenBabel12191814062D

 19 20  0  0  0  0  0  0  0  0999 V2000
    0.7145   -1.2375    0.0000 C   0  0  0  0  0  0  0  0  0  0  0  0
    0.7145   -0.4125    0.0000 C   0  0  0  0  0  0  0  0  0  0  0  0
    0.0000    0.0000    0.0000 C   0  0  0  0  0  0  0  0  0  0  0  0
    0.0000    0.8250    0.0000 C   0  0  0  0  0  0  0  0  0  0  0  0
    0.7145    1.2375    0.0000 C   0  0  0  0  0  0  0  0  0  0  0  0
    0.7145    2.0625    0.0000 O   0  0  0  0  0  0  0  0  0  0  0  0
    1.4289    0.8250    0.0000 C   0  0  0  0  0  0  0  0  0  0  0  0
    2.1434    1.2375    0.0000 C   0  0  0  0  0  0  0  0  0  0  0  0
    1.4289    0.0000    0.0000 C   0  0  0  0  0  0  0  0  0  0  0  0
    2.1434   -0.4125    0.0000 C   0  0  0  0  0  0  0  0  0  0  0  0
    2.1434   -1.2375    0.0000 C   0  0  0  0  0  0  0  0  0  0  0  0
    2.8109   -1.7224    0.0000 N   0  0  0  0  0  0  0  0  0  0  0  0
    2.5559   -2.5070    0.0000 C   0  0  0  0  0  0  0  0  0  0  0  0
    1.7309   -2.5070    0.0000 C   0  0  0  0  0  0  0  0  0  0  0  0
    1.4760   -1.7224    0.0000 N   0  0  0  0  0  0  0  0  0  0  0  0
   -0.7145    1.2375    0.0000 C   0  0  0  0  0  0  0  0  0  0  0  0
   -1.4289    1.6500    0.0000 C   0  0  0  0  0  0  0  0  0  0  0  0
   -0.3020    1.9520    0.0000 C   0  0  0  0  0  0  0  0  0  0  0  0
   -1.1270    0.5230    0.0000 C   0  0  0  0  0  0  0  0  0  0  0  0
  1  2  1  0  0  0  0
  2  3  2  0  0  0  0
  2  9  1  0  0  0  0
  3  4  1  0  0  0  0
  4  5  2  0  0  0  0
  4 16  1  0  0  0  0
  5  6  1  0  0  0  0
  5  7  1  0  0  0  0
  7  8  1  0  0  0  0
  7  9  2  0  0  0  0
  9 10  1  0  0  0  0
 10 11  1  0  0  0  0
 11 12  2  0  0  0  0
 11 15  1  0  0  0  0
 12 13  1  0  0  0  0
 13 14  1  0  0  0  0
 14 15  1  0  0  0  0
 16 17  1  0  0  0  0
 16 18  1  0  0  0  0
 16 19  1  0  0  0  0
M  END
$$$$

 OpenBabel12191814062D

 47 51  0  0  0  0  0  0  0  0999 V2000
    2.8251    2.4126    0.0000 C   0  0  0  0  0  0  0  0  0  0  0  0
    2.9588    1.5562    0.0000 C   0  0  3  0  0  0  0  0  0  0  0  0
    3.7894    1.4798    0.0000 C   0  0  0  0  0  0  0  0  0  0  0  0
    4.1332    0.7251    0.0000 C   0  0  3  0  0  0  0  0  0  0  0  0
    4.7609    1.4263    0.0000 O   0  0  0  0  0  0  0  0  0  0  0  0
    5.2903    2.1649    0.0000 C   0  0  0  0  0  0  0  0  0  0  0  0
    6.1414    2.3491    0.0000 C   0  0  0  0  0  0  0  0  0  0  0  0
    5.2829    3.0092    0.0000 O   0  0  0  0  0  0  0  0  0  0  0  0
    3.6590    0.0462    0.0000 C   0  0  3  0  0  0  0  0  0  0  0  0
    4.5933   -0.5559    0.0000 O   0  0  0  0  0  0  0  0  0  0  0  0
    5.1817   -1.4117    0.0000 C   0  0  0  0  0  0  0  0  0  0  0  0
    5.5181   -2.3943    0.0000 O   0  0  0  0  0  0  0  0  0  0  0  0
    5.7169   -0.8581    0.0000 C   0  0  0  0  0  0  0  0  0  0  0  0
    5.6658   -0.0347    0.0000 C   0  0  0  0  0  0  0  0  0  0  0  0
    6.3533    0.4213    0.0000 C   0  0  0  0  0  0  0  0  0  0  0  0
    7.0920    0.0538    0.0000 C   0  0  0  0  0  0  0  0  0  0  0  0
    7.1431   -0.7696    0.0000 C   0  0  0  0  0  0  0  0  0  0  0  0
    6.4556   -1.2256    0.0000 C   0  0  0  0  0  0  0  0  0  0  0  0
    2.8281    0.1194    0.0000 C   0  0  3  0  0  0  0  0  0  0  0  0
    3.3618   -0.6399    0.0000 C   0  0  0  0  0  0  0  0  0  0  0  0
    3.8215   -1.3492    0.0000 O   0  0  0  0  0  0  0  0  0  0  0  0
    4.2177   -2.0978    0.0000 C   0  0  0  0  0  0  0  0  0  0  0  0
    5.0205   -2.1567    0.0000 C   0  0  0  0  0  0  0  0  0  0  0  0
    4.4344   -2.9166    0.0000 O   0  0  0  0  0  0  0  0  0  0  0  0
    2.4117   -0.6435    0.0000 C   0  0  3  0  0  0  0  0  0  0  0  0
    2.1425   -1.5753    0.0000 O   0  0  0  0  0  0  0  0  0  0  0  0
    1.6136   -2.4265    0.0000 C   0  0  0  0  0  0  0  0  0  0  0  0
    0.8053   -2.7861    0.0000 O   0  0  0  0  0  0  0  0  0  0  0  0
    2.1794   -3.0659    0.0000 C   0  0  0  0  0  0  0  0  0  0  0  0
    2.9931   -3.2017    0.0000 C   0  0  0  0  0  0  0  0  0  0  0  0
    3.2824   -3.9743    0.0000 C   0  0  0  0  0  0  0  0  0  0  0  0
    2.7579   -4.6111    0.0000 C   0  0  0  0  0  0  0  0  0  0  0  0
    1.9442   -4.4753    0.0000 C   0  0  0  0  0  0  0  0  0  0  0  0
    1.6549   -3.7027    0.0000 C   0  0  0  0  0  0  0  0  0  0  0  0
    1.5574   -0.6042    0.0000 C   0  0  0  0  0  0  0  0  0  0  0  0
    0.6511   -0.5306    0.0000 O   0  0  0  0  0  0  0  0  0  0  0  0
    1.1508    0.1622    0.0000 C   0  0  3  0  0  0  0  0  0  0  0  0
    1.8101    0.5007    0.0000 C   0  0  3  0  0  0  0  0  0  0  0  0
    1.9225   -0.2934    0.0000 O   0  0  0  0  0  0  0  0  0  0  0  0
    1.2757   -1.0537    0.0000 C   0  0  0  0  0  0  0  0  0  0  0  0
    1.4676   -1.8366    0.0000 C   0  0  0  0  0  0  0  0  0  0  0  0
    0.5004   -1.4966    0.0000 O   0  0  0  0  0  0  0  0  0  0  0  0
    2.4154    0.8988    0.0000 C   0  0  3  0  0  0  0  0  0  0  0  0
    1.7079    1.4538    0.0000 O   0  0  0  0  0  0  0  0  0  0  0  0
    0.9575    1.0058    0.0000 C   0  0  0  0  0  0  0  0  0  0  0  0
    0.4983    1.7535    0.0000 C   0  0  0  0  0  0  0  0  0  0  0  0
    0.0842    0.9141    0.0000 C   0  0  0  0  0  0  0  0  0  0  0  0
  1  2  1  0  0  0  0
  2  3  1  0  0  0  0
  2 43  1  0  0  0  0
  3  4  1  0  0  0  0
  4  5  1  0  0  0  0
  4  9  1  0  0  0  0
  5  6  1  0  0  0  0
  6  7  1  0  0  0  0
  6  8  2  0  0  0  0
  9 10  1  0  0  0  0
  9 19  1  0  0  0  0
 10 11  1  0  0  0  0
 11 12  2  0  0  0  0
 11 13  1  0  0  0  0
 13 14  2  0  0  0  0
 13 18  1  0  0  0  0
 14 15  1  0  0  0  0
 15 16  2  0  0  0  0
 16 17  1  0  0  0  0
 17 18  2  0  0  0  0
 19 20  1  0  0  0  0
 19 25  1  0  0  0  0
 19 43  1  0  0  0  0
 20 21  1  0  0  0  0
 21 22  1  0  0  0  0
 22 23  1  0  0  0  0
 22 24  2  0  0  0  0
 25 26  1  0  0  0  0
 25 35  1  0  0  0  0
 26 27  1  0  0  0  0
 27 28  2  0  0  0  0
 27 29  1  0  0  0  0
 29 30  2  0  0  0  0
 29 34  1  0  0  0  0
 30 31  1  0  0  0  0
 31 32  2  0  0  0  0
 32 33  1  0  0  0  0
 33 34  2  0  0  0  0
 35 36  2  0  0  0  0
 35 37  1  0  0  0  0
 37 38  1  0  0  0  0
 37 45  1  0  0  0  0
 38 39  1  0  0  0  0
 38 43  1  0  0  0  0
 39 40  1  0  0  0  0
 40 41  1  0  0  0  0
 40 42  2  0  0  0  0
 43 44  1  0  0  0  0
 44 45  1  0  0  0  0
 45 46  1  0  0  0  0
 45 47  1  0  0  0  0
M  END
$$$$

 OpenBabel12191814062D

 50 54  0  0  0  0  0  0  0  0999 V2000
    2.9080    2.4214    0.0000 C   0  0  0  0  0  0  0  0  0  0  0  0
    2.9588    1.5562    0.0000 C   0  0  3  0  0  0  0  0  0  0  0  0
    3.7894    1.4798    0.0000 C   0  0  0  0  0  0  0  0  0  0  0  0
    4.1332    0.7251    0.0000 C   0  0  3  0  0  0  0  0  0  0  0  0
    4.9106    1.2234    0.0000 O   0  0  0  0  0  0  0  0  0  0  0  0
    5.5425    1.8543    0.0000 C   0  0  0  0  0  0  0  0  0  0  0  0
    6.4057    1.8285    0.0000 C   0  0  0  0  0  0  0  0  0  0  0  0
    5.5831    2.7057    0.0000 O   0  0  0  0  0  0  0  0  0  0  0  0
    3.6590    0.0462    0.0000 C   0  0  3  0  0  0  0  0  0  0  0  0
    4.6744   -0.4023    0.0000 O   0  0  0  0  0  0  0  0  0  0  0  0
    5.5979   -0.6498    0.0000 C   0  0  0  0  0  0  0  0  0  0  0  0
    6.3878   -0.2433    0.0000 C   0  0  0  0  0  0  0  0  0  0  0  0
    5.9372   -1.5816    0.0000 O   0  0  0  0  0  0  0  0  0  0  0  0
    2.8281    0.1194    0.0000 C   0  0  3  0  0  0  0  0  0  0  0  0
    3.5415   -0.4988    0.0000 C   0  0  0  0  0  0  0  0  0  0  0  0
    4.3695   -0.7722    0.0000 O   0  0  0  0  0  0  0  0  0  0  0  0
    5.2262   -1.2164    0.0000 C   0  0  0  0  0  0  0  0  0  0  0  0
    5.3026   -2.0718    0.0000 C   0  0  0  0  0  0  0  0  0  0  0  0
    6.1688   -1.0508    0.0000 O   0  0  0  0  0  0  0  0  0  0  0  0
    2.4117   -0.6435    0.0000 C   0  0  3  0  0  0  0  0  0  0  0  0
    2.5700   -1.5475    0.0000 O   0  0  0  0  0  0  0  0  0  0  0  0
    2.1400   -2.3976    0.0000 C   0  0  0  0  0  0  0  0  0  0  0  0
    1.6552   -3.0736    0.0000 O   0  0  0  0  0  0  0  0  0  0  0  0
    2.5247   -3.0764    0.0000 C   0  0  0  0  0  0  0  0  0  0  0  0
    3.3497   -3.0773    0.0000 C   0  0  0  0  0  0  0  0  0  0  0  0
    3.7615   -3.7921    0.0000 C   0  0  0  0  0  0  0  0  0  0  0  0
    3.3483   -4.5062    0.0000 C   0  0  0  0  0  0  0  0  0  0  0  0
    2.5233   -4.5054    0.0000 C   0  0  0  0  0  0  0  0  0  0  0  0
    2.1115   -3.7905    0.0000 C   0  0  0  0  0  0  0  0  0  0  0  0
    1.5574   -0.6042    0.0000 C   0  0  3  0  0  0  0  0  0  0  0  0
    0.6028   -0.8303    0.0000 O   0  0  0  0  0  0  0  0  0  0  0  0
   -0.3007   -1.1587    0.0000 C   0  0  0  0  0  0  0  0  0  0  0  0
   -0.9763   -0.6309    0.0000 O   0  0  0  0  0  0  0  0  0  0  0  0
   -0.2774   -2.1020    0.0000 C   0  0  0  0  0  0  0  0  0  0  0  0
    0.2490   -2.7372    0.0000 C   0  0  0  0  0  0  0  0  0  0  0  0
   -0.0378   -3.5107    0.0000 C   0  0  0  0  0  0  0  0  0  0  0  0
   -0.8511   -3.6491    0.0000 C   0  0  0  0  0  0  0  0  0  0  0  0
   -1.3776   -3.0139    0.0000 C   0  0  0  0  0  0  0  0  0  0  0  0
   -1.0907   -2.2404    0.0000 C   0  0  0  0  0  0  0  0  0  0  0  0
    1.1508    0.1622    0.0000 C   0  0  3  0  0  0  0  0  0  0  0  0
    1.8101    0.5007    0.0000 C   0  0  3  0  0  0  0  0  0  0  0  0
    2.0950   -0.2191    0.0000 O   0  0  0  0  0  0  0  0  0  0  0  0
    1.8986   -1.0869    0.0000 C   0  0  0  0  0  0  0  0  0  0  0  0
    1.9199   -1.8756    0.0000 C   0  0  0  0  0  0  0  0  0  0  0  0
    1.1135   -1.2704    0.0000 O   0  0  0  0  0  0  0  0  0  0  0  0
    2.4154    0.8988    0.0000 C   0  0  3  0  0  0  0  0  0  0  0  0
    1.7079    1.4538    0.0000 O   0  0  0  0  0  0  0  0  0  0  0  0
    0.9575    1.0058    0.0000 C   0  0  0  0  0  0  0  0  0  0  0  0
    0.5551    1.7797    0.0000 C   0  0  0  0  0  0  0  0  0  0  0  0
    0.0940    0.9148    0.0000 C   0  0  0  0  0  0  0  0  0  0  0  0
  1  2  1  0  0  0  0
  2  3  1  0  0  0  0
  2 46  1  0  0  0  0
  3  4  1  0  0  0  0
  4  5  1  0  0  0  0
  4  9  1  0  0  0  0
  5  6  1  0  0  0  0
  6  7  1  0  0  0  0
  6  8  2  0  0  0  0
  9 10  1  0  0  0  0
  9 14  1  0  0  0  0
 10 11  1  0  0  0  0
 11 12  1  0  0  0  0
 11 13  2  0  0  0  0
 14 15  1  0  0  0  0
 14 20  1  0  0  0  0
 14 46  1  0  0  0  0
 15 16  1  0  0  0  0
 16 17  1  0  0  0  0
 17 18  1  0  0  0  0
 17 19  2  0  0  0  0
 20 21  1  0  0  0  0
 20 30  1  0  0  0  0
 21 22  1  0  0  0  0
 22 23  2  0  0  0  0
 22 24  1  0  0  0  0
 24 25  2  0  0  0  0
 24 29  1  0  0  0  0
 25 26  1  0  0  0  0
 26 27  2  0  0  0  0
 27 28  1  0  0  0  0
 28 29  2  0  0  0  0
 30 31  1  0  0  0  0
 30 40  1  0  0  0  0
 31 32  1  0  0  0  0
 32 33  2  0  0  0  0
 32 34  1  0  0  0  0
 34 35  2  0  0  0  0
 34 39  1  0  0  0  0
 35 36  1  0  0  0  0
 36 37  2  0  0  0  0
 37 38  1  0  0  0  0
 38 39  2  0  0  0  0
 40 41  1  0  0  0  0
 40 48  1  0  0  0  0
 41 42  1  0  0  0  0
 41 46  1  0  0  0  0
 42 43  1  0  0  0  0
 43 44  1  0  0  0  0
 43 45  2  0  0  0  0
 46 47  1  0  0  0  0
 47 48  1  0  0  0  0
 48 49  1  0  0  0  0
 48 50  1  0  0  0  0
M  END
$$$$

 OpenBabel12191814062D

 47 49  0  0  0  0  0  0  0  0999 V2000
   -1.8122   -0.6411    0.0000 C   0  0  0  0  0  0  0  0  0  0  0  0
   -0.9872   -0.6411    0.0000 C   0  0  3  0  0  0  0  0  0  0  0  0
   -0.5023   -1.3086    0.0000 C   0  0  0  0  0  0  0  0  0  0  0  0
    0.2823   -1.0536    0.0000 C   0  0  3  0  0  0  0  0  0  0  0  0
   -0.0133   -1.8238    0.0000 O   0  0  0  0  0  0  0  0  0  0  0  0
   -0.8282   -1.9529    0.0000 C   0  0  0  0  0  0  0  0  0  0  0  0
   -1.1238   -2.7231    0.0000 C   0  0  0  0  0  0  0  0  0  0  0  0
   -1.3474   -1.3117    0.0000 O   0  0  0  0  0  0  0  0  0  0  0  0
    0.2823   -0.2286    0.0000 C   0  0  0  0  0  0  0  0  0  0  0  0
    0.9968    0.1839    0.0000 C   0  0  0  0  0  0  0  0  0  0  0  0
    1.4093    0.8984    0.0000 C   0  0  3  0  0  0  0  0  0  0  0  0
    0.6340    1.1805    0.0000 C   0  0  0  0  0  0  0  0  0  0  0  0
    1.5525    1.7108    0.0000 O   0  0  0  0  0  0  0  0  0  0  0  0
    2.2343    0.8984    0.0000 C   0  0  3  0  0  0  0  0  0  0  0  0
    2.4478    1.6952    0.0000 O   0  0  0  0  0  0  0  0  0  0  0  0
    3.2447    1.9088    0.0000 C   0  0  0  0  0  0  0  0  0  0  0  0
    3.4582    2.7057    0.0000 C   0  0  0  0  0  0  0  0  0  0  0  0
    3.8281    1.3254    0.0000 O   0  0  0  0  0  0  0  0  0  0  0  0
    2.9488    0.4859    0.0000 C   0  0  3  0  0  0  0  0  0  0  0  0
    3.5321    1.0692    0.0000 O   0  0  0  0  0  0  0  0  0  0  0  0
    4.3290    0.8557    0.0000 C   0  0  0  0  0  0  0  0  0  0  0  0
    4.9124    1.4391    0.0000 C   0  0  0  0  0  0  0  0  0  0  0  0
    4.5425    0.0588    0.0000 O   0  0  0  0  0  0  0  0  0  0  0  0
    3.3613   -0.2286    0.0000 C   0  0  3  0  0  0  0  0  0  0  0  0
    4.1581   -0.0151    0.0000 O   0  0  0  0  0  0  0  0  0  0  0  0
    4.7415   -0.5985    0.0000 C   0  0  0  0  0  0  0  0  0  0  0  0
    5.5384   -0.3849    0.0000 C   0  0  0  0  0  0  0  0  0  0  0  0
    4.5280   -1.3953    0.0000 O   0  0  0  0  0  0  0  0  0  0  0  0
    3.3613   -1.0536    0.0000 C   0  0  0  0  0  0  0  0  0  0  0  0
    4.1737   -0.9104    0.0000 C   0  0  0  0  0  0  0  0  0  0  0  0
    3.6434   -1.8289    0.0000 C   0  0  0  0  0  0  0  0  0  0  0  0
    2.6468   -1.4661    0.0000 C   0  0  0  0  0  0  0  0  0  0  0  0
    2.2343   -2.1806    0.0000 C   0  0  0  0  0  0  0  0  0  0  0  0
    1.4093   -2.1806    0.0000 C   0  0  3  0  0  0  0  0  0  0  0  0
    1.1958   -2.9775    0.0000 C   0  0  0  0  0  0  0  0  0  0  0  0
    0.6948   -1.7681    0.0000 C   0  0  0  0  0  0  0  0  0  0  0  0
    0.1115   -2.3514    0.0000 O   0  0  0  0  0  0  0  0  0  0  0  0
   -0.5023    0.0263    0.0000 C   0  0  3  0  0  0  0  0  0  0  0  0
   -0.7572    0.8109    0.0000 O   0  0  0  0  0  0  0  0  0  0  0  0
   -1.5642    0.9825    0.0000 C   0  0  0  0  0  0  0  0  0  0  0  0
   -2.1163    0.3694    0.0000 O   0  0  0  0  0  0  0  0  0  0  0  0
   -1.8192    1.7671    0.0000 C   0  0  0  0  0  0  0  0  0  0  0  0
   -2.6261    1.9386    0.0000 C   0  0  0  0  0  0  0  0  0  0  0  0
   -2.8811    2.7232    0.0000 C   0  0  0  0  0  0  0  0  0  0  0  0
   -2.3290    3.3363    0.0000 C   0  0  0  0  0  0  0  0  0  0  0  0
   -1.5221    3.1648    0.0000 C   0  0  0  0  0  0  0  0  0  0  0  0
   -1.2671    2.3802    0.0000 C   0  0  0  0  0  0  0  0  0  0  0  0
  1  2  1  0  0  0  0
  2  3  1  0  0  0  0
  2 38  1  0  0  0  0
  3  4  1  0  0  0  0
  4  5  1  0  0  0  0
  4  9  1  0  0  0  0
  4 36  1  0  0  0  0
  5  6  1  0  0  0  0
  6  7  1  0  0  0  0
  6  8  2  0  0  0  0
  9 10  2  0  0  0  0
  9 38  1  0  0  0  0
 10 11  1  0  0  0  0
 11 12  1  0  0  0  0
 11 13  1  0  0  0  0
 11 14  1  0  0  0  0
 14 15  1  0  0  0  0
 14 19  1  0  0  0  0
 15 16  1  0  0  0  0
 16 17  1  0  0  0  0
 16 18  2  0  0  0  0
 19 20  1  0  0  0  0
 19 24  1  0  0  0  0
 20 21  1  0  0  0  0
 21 22  1  0  0  0  0
 21 23  2  0  0  0  0
 24 25  1  0  0  0  0
 24 29  1  0  0  0  0
 25 26  1  0  0  0  0
 26 27  1  0  0  0  0
 26 28  2  0  0  0  0
 29 30  1  0  0  0  0
 29 31  1  0  0  0  0
 29 32  1  0  0  0  0
 32 33  2  0  0  0  0
 33 34  1  0  0  0  0
 34 35  1  0  0  0  0
 34 36  1  0  0  0  0
 36 37  2  0  0  0  0
 38 39  1  0  0  0  0
 39 40  1  0  0  0  0
 40 41  2  0  0  0  0
 40 42  1  0  0  0  0
 42 43  2  0  0  0  0
 42 47  1  0  0  0  0
 43 44  1  0  0  0  0
 44 45  2  0  0  0  0
 45 46  1  0  0  0  0
 46 47  2  0  0  0  0
M  END
$$$$

 OpenBabel12191814062D

 50 52  0  0  0  0  0  0  0  0999 V2000
   -1.8122   -0.6411    0.0000 C   0  0  0  0  0  0  0  0  0  0  0  0
   -0.9872   -0.6411    0.0000 C   0  0  3  0  0  0  0  0  0  0  0  0
   -0.5023   -1.3086    0.0000 C   0  0  0  0  0  0  0  0  0  0  0  0
    0.2823   -1.0536    0.0000 C   0  0  3  0  0  0  0  0  0  0  0  0
   -0.0133   -1.8238    0.0000 O   0  0  0  0  0  0  0  0  0  0  0  0
   -0.8282   -1.9529    0.0000 C   0  0  0  0  0  0  0  0  0  0  0  0
   -1.1238   -2.7231    0.0000 C   0  0  0  0  0  0  0  0  0  0  0  0
   -1.3474   -1.3117    0.0000 O   0  0  0  0  0  0  0  0  0  0  0  0
    0.2823   -0.2286    0.0000 C   0  0  0  0  0  0  0  0  0  0  0  0
    0.9968    0.1839    0.0000 C   0  0  0  0  0  0  0  0  0  0  0  0
    1.4093    0.8984    0.0000 C   0  0  3  0  0  0  0  0  0  0  0  0
    0.6340    1.1805    0.0000 C   0  0  0  0  0  0  0  0  0  0  0  0
    1.5525    1.7108    0.0000 O   0  0  0  0  0  0  0  0  0  0  0  0
    0.9206    2.2411    0.0000 C   0  0  0  0  0  0  0  0  0  0  0  0
    0.1453    1.9590    0.0000 C   0  0  0  0  0  0  0  0  0  0  0  0
    1.0638    3.0536    0.0000 O   0  0  0  0  0  0  0  0  0  0  0  0
    2.2343    0.8984    0.0000 C   0  0  3  0  0  0  0  0  0  0  0  0
    2.4478    1.6952    0.0000 O   0  0  0  0  0  0  0  0  0  0  0  0
    3.2447    1.9088    0.0000 C   0  0  0  0  0  0  0  0  0  0  0  0
    3.4582    2.7057    0.0000 C   0  0  0  0  0  0  0  0  0  0  0  0
    3.8281    1.3254    0.0000 O   0  0  0  0  0  0  0  0  0  0  0  0
    2.9488    0.4859    0.0000 C   0  0  3  0  0  0  0  0  0  0  0  0
    3.5321    1.0692    0.0000 O   0  0  0  0  0  0  0  0  0  0  0  0
    4.3290    0.8557    0.0000 C   0  0  0  0  0  0  0  0  0  0  0  0
    4.9124    1.4391    0.0000 C   0  0  0  0  0  0  0  0  0  0  0  0
    4.5425    0.0588    0.0000 O   0  0  0  0  0  0  0  0  0  0  0  0
    3.3613   -0.2286    0.0000 C   0  0  3  0  0  0  0  0  0  0  0  0
    4.1581   -0.0151    0.0000 O   0  0  0  0  0  0  0  0  0  0  0  0
    4.7415   -0.5985    0.0000 C   0  0  0  0  0  0  0  0  0  0  0  0
    5.5384   -0.3849    0.0000 C   0  0  0  0  0  0  0  0  0  0  0  0
    4.5280   -1.3953    0.0000 O   0  0  0  0  0  0  0  0  0  0  0  0
    3.3613   -1.0536    0.0000 C   0  0  0  0  0  0  0  0  0  0  0  0
    4.1737   -0.9104    0.0000 C   0  0  0  0  0  0  0  0  0  0  0  0
    3.6434   -1.8289    0.0000 C   0  0  0  0  0  0  0  0  0  0  0  0
    2.6468   -1.4661    0.0000 C   0  0  0  0  0  0  0  0  0  0  0  0
    2.2343   -2.1806    0.0000 C   0  0  0  0  0  0  0  0  0  0  0  0
    1.4093   -2.1806    0.0000 C   0  0  3  0  0  0  0  0  0  0  0  0
    1.1958   -2.9775    0.0000 C   0  0  0  0  0  0  0  0  0  0  0  0
    0.6948   -1.7681    0.0000 C   0  0  0  0  0  0  0  0  0  0  0  0
    0.1115   -2.3514    0.0000 O   0  0  0  0  0  0  0  0  0  0  0  0
   -0.5023    0.0263    0.0000 C   0  0  3  0  0  0  0  0  0  0  0  0
   -0.7572    0.8109    0.0000 O   0  0  0  0  0  0  0  0  0  0  0  0
   -1.5642    0.9825    0.0000 C   0  0  0  0  0  0  0  0  0  0  0  0
   -2.1163    0.3694    0.0000 O   0  0  0  0  0  0  0  0  0  0  0  0
   -1.8192    1.7671    0.0000 C   0  0  0  0  0  0  0  0  0  0  0  0
   -2.6261    1.9386    0.0000 C   0  0  0  0  0  0  0  0  0  0  0  0
   -2.8811    2.7232    0.0000 C   0  0  0  0  0  0  0  0  0  0  0  0
   -2.3290    3.3363    0.0000 C   0  0  0  0  0  0  0  0  0  0  0  0
   -1.5221    3.1648    0.0000 C   0  0  0  0  0  0  0  0  0  0  0  0
   -1.2671    2.3802    0.0000 C   0  0  0  0  0  0  0  0  0  0  0  0
  1  2  1  0  0  0  0
  2  3  1  0  0  0  0
  2 41  1  0  0  0  0
  3  4  1  0  0  0  0
  4  5  1  0  0  0  0
  4  9  1  0  0  0  0
  4 39  1  0  0  0  0
  5  6  1  0  0  0  0
  6  7  1  0  0  0  0
  6  8  2  0  0  0  0
  9 10  2  0  0  0  0
  9 41  1  0  0  0  0
 10 11  1  0  0  0  0
 11 12  1  0  0  0  0
 11 13  1  0  0  0  0
 11 17  1  0  0  0  0
 13 14  1  0  0  0  0
 14 15  1  0  0  0  0
 14 16  2  0  0  0  0
 17 18  1  0  0  0  0
 17 22  1  0  0  0  0
 18 19  1  0  0  0  0
 19 20  1  0  0  0  0
 19 21  2  0  0  0  0
 22 23  1  0  0  0  0
 22 27  1  0  0  0  0
 23 24  1  0  0  0  0
 24 25  1  0  0  0  0
 24 26  2  0  0  0  0
 27 28  1  0  0  0  0
 27 32  1  0  0  0  0
 28 29  1  0  0  0  0
 29 30  1  0  0  0  0
 29 31  2  0  0  0  0
 32 33  1  0  0  0  0
 32 34  1  0  0  0  0
 32 35  1  0  0  0  0
 35 36  2  0  0  0  0
 36 37  1  0  0  0  0
 37 38  1  0  0  0  0
 37 39  1  0  0  0  0
 39 40  2  0  0  0  0
 41 42  1  0  0  0  0
 42 43  1  0  0  0  0
 43 44  2  0  0  0  0
 43 45  1  0  0  0  0
 45 46  2  0  0  0  0
 45 50  1  0  0  0  0
 46 47  1  0  0  0  0
 47 48  2  0  0  0  0
 48 49  1  0  0  0  0
 49 50  2  0  0  0  0
M  END
$$$$

 OpenBabel12191814062D

 46 48  0  0  0  0  0  0  0  0999 V2000
   -1.8122   -0.6411    0.0000 C   0  0  0  0  0  0  0  0  0  0  0  0
   -0.9872   -0.6411    0.0000 C   0  0  3  0  0  0  0  0  0  0  0  0
   -0.5023   -1.3086    0.0000 C   0  0  0  0  0  0  0  0  0  0  0  0
    0.2823   -1.0536    0.0000 C   0  0  3  0  0  0  0  0  0  0  0  0
   -0.0133   -1.8238    0.0000 O   0  0  0  0  0  0  0  0  0  0  0  0
   -0.8282   -1.9529    0.0000 C   0  0  0  0  0  0  0  0  0  0  0  0
   -1.1238   -2.7231    0.0000 C   0  0  0  0  0  0  0  0  0  0  0  0
   -1.3474   -1.3117    0.0000 O   0  0  0  0  0  0  0  0  0  0  0  0
    0.2823   -0.2286    0.0000 C   0  0  3  0  0  0  0  0  0  0  0  0
    0.9968    0.1839    0.0000 C   0  0  0  0  0  0  0  0  0  0  0  0
    1.4093    0.8984    0.0000 C   0  0  0  0  0  0  0  0  0  0  0  0
    0.9968    1.6128    0.0000 C   0  0  0  0  0  0  0  0  0  0  0  0
    2.2343    0.8984    0.0000 C   0  0  3  0  0  0  0  0  0  0  0  0
    2.4478    1.6952    0.0000 O   0  0  0  0  0  0  0  0  0  0  0  0
    2.9488    0.4859    0.0000 C   0  0  3  0  0  0  0  0  0  0  0  0
    3.5321    1.0692    0.0000 O   0  0  0  0  0  0  0  0  0  0  0  0
    3.3186    1.8661    0.0000 C   0  0  0  0  0  0  0  0  0  0  0  0
    2.5217    2.0796    0.0000 C   0  0  0  0  0  0  0  0  0  0  0  0
    3.9020    2.4495    0.0000 O   0  0  0  0  0  0  0  0  0  0  0  0
    3.3613   -0.2286    0.0000 C   0  0  3  0  0  0  0  0  0  0  0  0
    4.1581   -0.0151    0.0000 O   0  0  0  0  0  0  0  0  0  0  0  0
    4.3717    0.7818    0.0000 C   0  0  0  0  0  0  0  0  0  0  0  0
    3.7883    1.3652    0.0000 C   0  0  0  0  0  0  0  0  0  0  0  0
    5.1686    0.9953    0.0000 O   0  0  0  0  0  0  0  0  0  0  0  0
    3.3613   -1.0536    0.0000 C   0  0  0  0  0  0  0  0  0  0  0  0
    4.1737   -0.9104    0.0000 C   0  0  0  0  0  0  0  0  0  0  0  0
    3.6434   -1.8289    0.0000 C   0  0  0  0  0  0  0  0  0  0  0  0
    2.6468   -1.4661    0.0000 C   0  0  0  0  0  0  0  0  0  0  0  0
    2.2343   -2.1806    0.0000 C   0  0  0  0  0  0  0  0  0  0  0  0
    1.4093   -2.1806    0.0000 C   0  0  3  0  0  0  0  0  0  0  0  0
    1.1958   -2.9775    0.0000 C   0  0  0  0  0  0  0  0  0  0  0  0
    0.6948   -1.7681    0.0000 C   0  0  3  0  0  0  0  0  0  0  0  0
    0.1115   -2.3514    0.0000 O   0  0  0  0  0  0  0  0  0  0  0  0
    0.3250   -3.1483    0.0000 C   0  0  0  0  0  0  0  0  0  0  0  0
    1.1219   -3.3619    0.0000 C   0  0  0  0  0  0  0  0  0  0  0  0
   -0.2584   -3.7317    0.0000 O   0  0  0  0  0  0  0  0  0  0  0  0
   -0.5023    0.0263    0.0000 C   0  0  3  0  0  0  0  0  0  0  0  0
   -0.7572    0.8109    0.0000 O   0  0  0  0  0  0  0  0  0  0  0  0
   -1.5642    0.9825    0.0000 C   0  0  0  0  0  0  0  0  0  0  0  0
   -2.1163    0.3694    0.0000 O   0  0  0  0  0  0  0  0  0  0  0  0
   -1.8192    1.7671    0.0000 C   0  0  0  0  0  0  0  0  0  0  0  0
   -2.6261    1.9386    0.0000 C   0  0  0  0  0  0  0  0  0  0  0  0
   -2.8811    2.7232    0.0000 C   0  0  0  0  0  0  0  0  0  0  0  0
   -2.3290    3.3363    0.0000 C   0  0  0  0  0  0  0  0  0  0  0  0
   -1.5221    3.1648    0.0000 C   0  0  0  0  0  0  0  0  0  0  0  0
   -1.2671    2.3802    0.0000 C   0  0  0  0  0  0  0  0  0  0  0  0
  1  2  1  0  0  0  0
  2  3  1  0  0  0  0
  2 37  1  0  0  0  0
  3  4  1  0  0  0  0
  4  5  1  0  0  0  0
  4  9  1  0  0  0  0
  4 32  1  0  0  0  0
  5  6  1  0  0  0  0
  6  7  1  0  0  0  0
  6  8  2  0  0  0  0
  9 10  1  0  0  0  0
  9 37  1  0  0  0  0
 10 11  2  0  0  0  0
 11 12  1  0  0  0  0
 11 13  1  0  0  0  0
 13 14  1  0  0  0  0
 13 15  1  0  0  0  0
 15 16  1  0  0  0  0
 15 20  1  0  0  0  0
 16 17  1  0  0  0  0
 17 18  1  0  0  0  0
 17 19  2  0  0  0  0
 20 21  1  0  0  0  0
 20 25  1  0  0  0  0
 21 22  1  0  0  0  0
 22 23  1  0  0  0  0
 22 24  2  0  0  0  0
 25 26  1  0  0  0  0
 25 27  1  0  0  0  0
 25 28  1  0  0  0  0
 28 29  2  0  0  0  0
 29 30  1  0  0  0  0
 30 31  1  0  0  0  0
 30 32  1  0  0  0  0
 32 33  1  0  0  0  0
 33 34  1  0  0  0  0
 34 35  1  0  0  0  0
 34 36  2  0  0  0  0
 37 38  1  0  0  0  0
 38 39  1  0  0  0  0
 39 40  2  0  0  0  0
 39 41  1  0  0  0  0
 41 42  2  0  0  0  0
 41 46  1  0  0  0  0
 42 43  1  0  0  0  0
 43 44  2  0  0  0  0
 44 45  1  0  0  0  0
 45 46  2  0  0  0  0
M  END
$$$$

 OpenBabel12191814062D

 46 48  0  0  0  0  0  0  0  0999 V2000
   -1.8121   -0.6227    0.0000 C   0  0  0  0  0  0  0  0  0  0  0  0
   -0.9872   -0.6326    0.0000 C   0  0  3  0  0  0  0  0  0  0  0  0
   -0.5104   -1.3059    0.0000 C   0  0  0  0  0  0  0  0  0  0  0  0
    0.2773   -1.0604    0.0000 C   0  0  3  0  0  0  0  0  0  0  0  0
   -0.0277   -1.8270    0.0000 O   0  0  0  0  0  0  0  0  0  0  0  0
   -0.8440   -1.9462    0.0000 C   0  0  0  0  0  0  0  0  0  0  0  0
   -1.1489   -2.7128    0.0000 C   0  0  0  0  0  0  0  0  0  0  0  0
   -1.3554   -1.2988    0.0000 O   0  0  0  0  0  0  0  0  0  0  0  0
    0.2873   -0.2355    0.0000 C   0  0  3  0  0  0  0  0  0  0  0  0
   -0.4942    0.0289    0.0000 C   0  0  3  0  0  0  0  0  0  0  0  0
   -0.7397    0.8165    0.0000 O   0  0  0  0  0  0  0  0  0  0  0  0
   -1.5445    0.9978    0.0000 C   0  0  0  0  0  0  0  0  0  0  0  0
   -2.1039    0.3914    0.0000 C   0  0  0  0  0  0  0  0  0  0  0  0
   -1.7899    1.7855    0.0000 O   0  0  0  0  0  0  0  0  0  0  0  0
    0.7084    0.4739    0.0000 C   0  0  3  0  0  0  0  0  0  0  0  0
    0.1321    1.0643    0.0000 O   0  0  0  0  0  0  0  0  0  0  0  0
    0.3552    1.8585    0.0000 C   0  0  0  0  0  0  0  0  0  0  0  0
    1.1546    2.0624    0.0000 C   0  0  0  0  0  0  0  0  0  0  0  0
   -0.2210    2.4489    0.0000 O   0  0  0  0  0  0  0  0  0  0  0  0
    1.4278    0.8778    0.0000 C   0  0  0  0  0  0  0  0  0  0  0  0
    1.2239    1.6772    0.0000 C   0  0  0  0  0  0  0  0  0  0  0  0
    2.2527    0.8678    0.0000 C   0  0  3  0  0  0  0  0  0  0  0  0
    2.9621    0.4467    0.0000 C   0  0  0  0  0  0  0  0  0  0  0  0
    3.3660   -0.2727    0.0000 C   0  0  3  0  0  0  0  0  0  0  0  0
    4.1654   -0.0688    0.0000 O   0  0  0  0  0  0  0  0  0  0  0  0
    4.3885    0.7254    0.0000 C   0  0  0  0  0  0  0  0  0  0  0  0
    3.8123    1.3158    0.0000 O   0  0  0  0  0  0  0  0  0  0  0  0
    5.1879    0.9293    0.0000 C   0  0  0  0  0  0  0  0  0  0  0  0
    5.7642    0.3389    0.0000 C   0  0  0  0  0  0  0  0  0  0  0  0
    6.5636    0.5428    0.0000 C   0  0  0  0  0  0  0  0  0  0  0  0
    6.7868    1.3371    0.0000 C   0  0  0  0  0  0  0  0  0  0  0  0
    6.2105    1.9274    0.0000 N   0  0  0  0  0  0  0  0  0  0  0  0
    5.4111    1.7235    0.0000 C   0  0  0  0  0  0  0  0  0  0  0  0
    3.3560   -1.0977    0.0000 C   0  0  0  0  0  0  0  0  0  0  0  0
    4.1701   -0.9642    0.0000 C   0  0  0  0  0  0  0  0  0  0  0  0
    3.6288   -1.8763    0.0000 C   0  0  0  0  0  0  0  0  0  0  0  0
    2.6366   -1.5015    0.0000 C   0  0  0  0  0  0  0  0  0  0  0  0
    2.2155   -2.2109    0.0000 C   0  0  0  0  0  0  0  0  0  0  0  0
    1.3906   -2.2010    0.0000 C   0  0  3  0  0  0  0  0  0  0  0  0
    1.1674   -2.9952    0.0000 C   0  0  0  0  0  0  0  0  0  0  0  0
    0.6811   -1.7798    0.0000 C   0  0  0  0  0  0  0  0  0  0  0  0
    0.0908   -2.3561    0.0000 O   0  0  0  0  0  0  0  0  0  0  0  0
    2.4758    1.6620    0.0000 O   0  0  0  0  0  0  0  0  0  0  0  0
    3.2753    1.8659    0.0000 C   0  0  0  0  0  0  0  0  0  0  0  0
    3.4984    2.6602    0.0000 C   0  0  0  0  0  0  0  0  0  0  0  0
    4.0885    1.7270    0.0000 O   0  0  0  0  0  0  0  0  0  0  0  0
  1  2  1  0  0  0  0
  2  3  1  0  0  0  0
  2 10  1  0  0  0  0
  3  4  1  0  0  0  0
  4  5  1  0  0  0  0
  4  9  1  0  0  0  0
  4 41  1  0  0  0  0
  5  6  1  0  0  0  0
  6  7  1  0  0  0  0
  6  8  2  0  0  0  0
  9 10  1  0  0  0  0
  9 15  1  0  0  0  0
 10 11  1  0  0  0  0
 11 12  1  0  0  0  0
 12 13  1  0  0  0  0
 12 14  2  0  0  0  0
 15 16  1  0  0  0  0
 15 20  1  0  0  0  0
 16 17  1  0  0  0  0
 17 18  1  0  0  0  0
 17 19  2  0  0  0  0
 20 21  2  0  0  0  0
 20 22  1  0  0  0  0
 22 23  1  0  0  0  0
 22 43  1  0  0  0  0
 23 24  1  0  0  0  0
 24 25  1  0  0  0  0
 24 34  1  0  0  0  0
 25 26  1  0  0  0  0
 26 27  2  0  0  0  0
 26 28  1  0  0  0  0
 28 29  2  0  0  0  0
 28 33  1  0  0  0  0
 29 30  1  0  0  0  0
 30 31  2  0  0  0  0
 31 32  1  0  0  0  0
 32 33  2  0  0  0  0
 34 35  1  0  0  0  0
 34 36  1  0  0  0  0
 34 37  1  0  0  0  0
 37 38  2  0  0  0  0
 38 39  1  0  0  0  0
 39 40  1  0  0  0  0
 39 41  1  0  0  0  0
 41 42  2  0  0  0  0
 43 44  1  0  0  0  0
 44 45  1  0  0  0  0
 44 46  2  0  0  0  0
M  END
$$$$

 OpenBabel12191814062D

 50 52  0  0  0  0  0  0  0  0999 V2000
   -1.0409   -1.4190    0.0000 C   0  0  0  0  0  0  0  0  0  0  0  0
   -0.2159   -1.4155    0.0000 C   0  0  3  0  0  0  0  0  0  0  0  0
    0.2661   -0.7459    0.0000 C   0  0  0  0  0  0  0  0  0  0  0  0
    1.0518   -0.9975    0.0000 C   0  0  3  0  0  0  0  0  0  0  0  0
    0.7528   -0.2285    0.0000 O   0  0  0  0  0  0  0  0  0  0  0  0
   -0.0626   -0.1030    0.0000 C   0  0  0  0  0  0  0  0  0  0  0  0
   -0.5790   -0.7464    0.0000 C   0  0  0  0  0  0  0  0  0  0  0  0
   -0.3616    0.6659    0.0000 O   0  0  0  0  0  0  0  0  0  0  0  0
    1.4612   -0.2812    0.0000 C   0  0  3  0  0  0  0  0  0  0  0  0
    0.8753    0.2996    0.0000 O   0  0  0  0  0  0  0  0  0  0  0  0
    1.0854    1.0974    0.0000 C   0  0  0  0  0  0  0  0  0  0  0  0
    0.4995    1.6783    0.0000 C   0  0  0  0  0  0  0  0  0  0  0  0
    1.8813    1.3144    0.0000 O   0  0  0  0  0  0  0  0  0  0  0  0
    2.1739    0.1344    0.0000 C   0  0  3  0  0  0  0  0  0  0  0  0
    2.1703    0.9594    0.0000 C   0  0  0  0  0  0  0  0  0  0  0  0
    2.8901   -0.2750    0.0000 C   0  0  0  0  0  0  0  0  0  0  0  0
    3.7151   -0.2714    0.0000 C   0  0  0  0  0  0  0  0  0  0  0  0
    4.1307   -0.9841    0.0000 C   0  0  0  0  0  0  0  0  0  0  0  0
    4.9072   -1.2629    0.0000 C   0  0  0  0  0  0  0  0  0  0  0  0
    4.6583   -0.3498    0.0000 C   0  0  0  0  0  0  0  0  0  0  0  0
    4.1343   -1.8091    0.0000 C   0  0  3  0  0  0  0  0  0  0  0  0
    4.9321   -2.0192    0.0000 O   0  0  0  0  0  0  0  0  0  0  0  0
    5.1491   -2.8151    0.0000 C   0  0  0  0  0  0  0  0  0  0  0  0
    4.5683   -3.4010    0.0000 C   0  0  0  0  0  0  0  0  0  0  0  0
    5.9469   -3.0252    0.0000 O   0  0  0  0  0  0  0  0  0  0  0  0
    3.7249   -2.5253    0.0000 C   0  0  3  0  0  0  0  0  0  0  0  0
    4.3108   -3.1062    0.0000 O   0  0  0  0  0  0  0  0  0  0  0  0
    4.1007   -3.9040    0.0000 C   0  0  0  0  0  0  0  0  0  0  0  0
    4.6866   -4.4848    0.0000 C   0  0  0  0  0  0  0  0  0  0  0  0
    3.3048   -4.1210    0.0000 O   0  0  0  0  0  0  0  0  0  0  0  0
    3.0122   -2.9409    0.0000 C   0  0  3  0  0  0  0  0  0  0  0  0
    3.2292   -3.7369    0.0000 O   0  0  0  0  0  0  0  0  0  0  0  0
    2.6484   -4.3228    0.0000 C   0  0  0  0  0  0  0  0  0  0  0  0
    1.8506   -4.1127    0.0000 C   0  0  0  0  0  0  0  0  0  0  0  0
    2.8654   -5.1187    0.0000 O   0  0  0  0  0  0  0  0  0  0  0  0
    2.1872   -2.9445    0.0000 C   0  0  3  0  0  0  0  0  0  0  0  0
    1.4132   -3.2300    0.0000 C   0  0  0  0  0  0  0  0  0  0  0  0
    2.3340   -3.7564    0.0000 O   0  0  0  0  0  0  0  0  0  0  0  0
    1.7717   -2.2318    0.0000 C   0  0  0  0  0  0  0  0  0  0  0  0
    1.0554   -1.8224    0.0000 C   0  0  0  0  0  0  0  0  0  0  0  0
    0.2719   -2.0808    0.0000 C   0  0  3  0  0  0  0  0  0  0  0  0
    0.0204   -2.8665    0.0000 O   0  0  0  0  0  0  0  0  0  0  0  0
   -0.7859   -3.0415    0.0000 C   0  0  0  0  0  0  0  0  0  0  0  0
   -1.3406   -2.4308    0.0000 O   0  0  0  0  0  0  0  0  0  0  0  0
   -1.0374   -3.8273    0.0000 C   0  0  0  0  0  0  0  0  0  0  0  0
   -0.4827   -4.4379    0.0000 C   0  0  0  0  0  0  0  0  0  0  0  0
   -0.7342   -5.2237    0.0000 C   0  0  0  0  0  0  0  0  0  0  0  0
   -1.5405   -5.3987    0.0000 C   0  0  0  0  0  0  0  0  0  0  0  0
   -2.0951   -4.7880    0.0000 C   0  0  0  0  0  0  0  0  0  0  0  0
   -1.8436   -4.0023    0.0000 C   0  0  0  0  0  0  0  0  0  0  0  0
  1  2  1  0  0  0  0
  2  3  1  0  0  0  0
  2 41  1  0  0  0  0
  3  4  1  0  0  0  0
  4  5  1  0  0  0  0
  4  9  1  0  0  0  0
  4 40  1  0  0  0  0
  5  6  1  0  0  0  0
  6  7  1  0  0  0  0
  6  8  2  0  0  0  0
  9 10  1  0  0  0  0
  9 14  1  0  0  0  0
 10 11  1  0  0  0  0
 11 12  1  0  0  0  0
 11 13  2  0  0  0  0
 14 15  1  0  0  0  0
 14 16  1  0  0  0  0
 16 17  2  0  0  0  0
 17 18  1  0  0  0  0
 18 19  1  0  0  0  0
 18 20  1  0  0  0  0
 18 21  1  0  0  0  0
 21 22  1  0  0  0  0
 21 26  1  0  0  0  0
 22 23  1  0  0  0  0
 23 24  1  0  0  0  0
 23 25  2  0  0  0  0
 26 27  1  0  0  0  0
 26 31  1  0  0  0  0
 27 28  1  0  0  0  0
 28 29  1  0  0  0  0
 28 30  2  0  0  0  0
 31 32  1  0  0  0  0
 31 36  1  0  0  0  0
 32 33  1  0  0  0  0
 33 34  1  0  0  0  0
 33 35  2  0  0  0  0
 36 37  1  0  0  0  0
 36 38  1  0  0  0  0
 36 39  1  0  0  0  0
 39 40  2  0  0  0  0
 40 41  1  0  0  0  0
 41 42  1  0  0  0  0
 42 43  1  0  0  0  0
 43 44  2  0  0  0  0
 43 45  1  0  0  0  0
 45 46  2  0  0  0  0
 45 50  1  0  0  0  0
 46 47  1  0  0  0  0
 47 48  2  0  0  0  0
 48 49  1  0  0  0  0
 49 50  2  0  0  0  0
M  END
$$$$

 OpenBabel12191814062D

 27 30  0  0  0  0  0  0  0  0999 V2000
    1.4978    2.4498    0.0000 C   0  0  0  0  0  0  0  0  0  0  0  0
    1.7781    1.6739    0.0000 C   0  0  3  0  0  0  0  0  0  0  0  0
    2.5902    1.5287    0.0000 C   0  0  0  0  0  0  0  0  0  0  0  0
    2.8705    0.7528    0.0000 C   0  0  3  0  0  0  0  0  0  0  0  0
    3.6826    0.6076    0.0000 C   0  0  3  0  0  0  0  0  0  0  0  0
    4.3340    1.1139    0.0000 C   0  0  0  0  0  0  0  0  0  0  0  0
    5.0168    0.6509    0.0000 C   0  0  0  0  0  0  0  0  0  0  0  0
    4.7875   -0.1416    0.0000 C   0  0  3  0  0  0  0  0  0  0  0  0
    4.7280   -0.9644    0.0000 O   0  0  0  0  0  0  0  0  0  0  0  0
    5.5996   -0.2868    0.0000 C   0  0  0  0  0  0  0  0  0  0  0  0
    5.8799   -1.0627    0.0000 O   0  0  0  0  0  0  0  0  0  0  0  0
    6.1315    0.3439    0.0000 C   0  0  0  0  0  0  0  0  0  0  0  0
    6.9436    0.1987    0.0000 O   0  0  0  0  0  0  0  0  0  0  0  0
    3.9629   -0.1684    0.0000 C   0  0  3  0  0  0  0  0  0  0  0  0
    4.3228   -0.9107    0.0000 C   0  0  0  0  0  0  0  0  0  0  0  0
    3.4311   -0.7991    0.0000 C   0  0  0  0  0  0  0  0  0  0  0  0
    2.6190   -0.6539    0.0000 C   0  0  3  0  0  0  0  0  0  0  0  0
    2.0872   -1.2846    0.0000 O   0  0  0  0  0  0  0  0  0  0  0  0
    2.3387    0.1221    0.0000 C   0  0  3  0  0  0  0  0  0  0  0  0
    1.5266    0.2673    0.0000 C   0  0  3  0  0  0  0  0  0  0  0  0
    1.8069   -0.5086    0.0000 C   0  0  0  0  0  0  0  0  0  0  0  0
    0.9948   -0.3634    0.0000 C   0  0  0  0  0  0  0  0  0  0  0  0
    0.1827   -0.2182    0.0000 C   0  0  0  0  0  0  0  0  0  0  0  0
   -0.0976    0.5577    0.0000 C   0  0  0  0  0  0  0  0  0  0  0  0
   -0.9098    0.7029    0.0000 O   0  0  0  0  0  0  0  0  0  0  0  0
    0.4342    1.1884    0.0000 C   0  0  0  0  0  0  0  0  0  0  0  0
    1.2463    1.0432    0.0000 C   0  0  0  0  0  0  0  0  0  0  0  0
  1  2  1  0  0  0  0
  2  3  1  0  0  0  0
  2 27  1  0  0  0  0
  3  4  1  0  0  0  0
  4  5  1  0  0  0  0
  4 19  1  0  0  0  0
  5  6  1  0  0  0  0
  5 14  1  0  0  0  0
  6  7  1  0  0  0  0
  7  8  1  0  0  0  0
  8  9  1  0  0  0  0
  8 10  1  0  0  0  0
  8 14  1  0  0  0  0
 10 11  2  0  0  0  0
 10 12  1  0  0  0  0
 12 13  1  0  0  0  0
 14 15  1  0  0  0  0
 14 16  1  0  0  0  0
 16 17  1  0  0  0  0
 17 18  1  0  0  0  0
 17 19  1  0  0  0  0
 19 20  1  0  0  0  0
 20 21  1  0  0  0  0
 20 22  1  0  0  0  0
 20 27  1  0  0  0  0
 22 23  2  0  0  0  0
 23 24  1  0  0  0  0
 24 25  2  0  0  0  0
 24 26  1  0  0  0  0
 26 27  2  0  0  0  0
M  END
$$$$

 OpenBabel12191814062D

 25 28  0  0  0  0  0  0  0  0999 V2000
    1.4978    2.4498    0.0000 C   0  0  0  0  0  0  0  0  0  0  0  0
    1.7781    1.6739    0.0000 C   0  0  3  0  0  0  0  0  0  0  0  0
    2.5902    1.5287    0.0000 C   0  0  0  0  0  0  0  0  0  0  0  0
    2.8705    0.7528    0.0000 C   0  0  3  0  0  0  0  0  0  0  0  0
    3.6826    0.6076    0.0000 C   0  0  3  0  0  0  0  0  0  0  0  0
    4.3340    1.1139    0.0000 C   0  0  0  0  0  0  0  0  0  0  0  0
    5.0168    0.6509    0.0000 C   0  0  0  0  0  0  0  0  0  0  0  0
    4.7875   -0.1416    0.0000 C   0  0  3  0  0  0  0  0  0  0  0  0
    4.7280   -0.9644    0.0000 O   0  0  0  0  0  0  0  0  0  0  0  0
    5.5996   -0.2868    0.0000 C   0  0  0  0  0  0  0  0  0  0  0  0
    5.8799   -1.0627    0.0000 C   0  0  0  0  0  0  0  0  0  0  0  0
    6.1315    0.3439    0.0000 O   0  0  0  0  0  0  0  0  0  0  0  0
    3.9629   -0.1684    0.0000 C   0  0  3  0  0  0  0  0  0  0  0  0
    4.3228   -0.9107    0.0000 C   0  0  0  0  0  0  0  0  0  0  0  0
    3.4311   -0.7991    0.0000 C   0  0  0  0  0  0  0  0  0  0  0  0
    2.6190   -0.6539    0.0000 C   0  0  0  0  0  0  0  0  0  0  0  0
    2.3387    0.1221    0.0000 C   0  0  3  0  0  0  0  0  0  0  0  0
    1.5266    0.2673    0.0000 C   0  0  3  0  0  0  0  0  0  0  0  0
    1.8069   -0.5086    0.0000 C   0  0  0  0  0  0  0  0  0  0  0  0
    0.9948   -0.3634    0.0000 C   0  0  0  0  0  0  0  0  0  0  0  0
    0.1827   -0.2182    0.0000 C   0  0  0  0  0  0  0  0  0  0  0  0
   -0.0976    0.5577    0.0000 C   0  0  0  0  0  0  0  0  0  0  0  0
   -0.9098    0.7029    0.0000 O   0  0  0  0  0  0  0  0  0  0  0  0
    0.4342    1.1884    0.0000 C   0  0  0  0  0  0  0  0  0  0  0  0
    1.2463    1.0432    0.0000 C   0  0  0  0  0  0  0  0  0  0  0  0
  1  2  1  0  0  0  0
  2  3  1  0  0  0  0
  2 25  1  0  0  0  0
  3  4  1  0  0  0  0
  4  5  1  0  0  0  0
  4 17  1  0  0  0  0
  5  6  1  0  0  0  0
  5 13  1  0  0  0  0
  6  7  1  0  0  0  0
  7  8  1  0  0  0  0
  8  9  1  0  0  0  0
  8 10  1  0  0  0  0
  8 13  1  0  0  0  0
 10 11  1  0  0  0  0
 10 12  2  0  0  0  0
 13 14  1  0  0  0  0
 13 15  1  0  0  0  0
 15 16  1  0  0  0  0
 16 17  1  0  0  0  0
 17 18  1  0  0  0  0
 18 19  1  0  0  0  0
 18 20  1  0  0  0  0
 18 25  1  0  0  0  0
 20 21  1  0  0  0  0
 21 22  1  0  0  0  0
 22 23  2  0  0  0  0
 22 24  1  0  0  0  0
 24 25  2  0  0  0  0
M  END
$$$$

 OpenBabel12191814062D

 28 31  0  0  0  0  0  0  0  0999 V2000
    1.4978    2.4498    0.0000 C   0  0  0  0  0  0  0  0  0  0  0  0
    1.7781    1.6739    0.0000 C   0  0  3  0  0  0  0  0  0  0  0  0
    2.5902    1.5287    0.0000 C   0  0  0  0  0  0  0  0  0  0  0  0
    2.8705    0.7528    0.0000 C   0  0  3  0  0  0  0  0  0  0  0  0
    3.6826    0.6076    0.0000 C   0  0  3  0  0  0  0  0  0  0  0  0
    4.3340    1.1139    0.0000 C   0  0  0  0  0  0  0  0  0  0  0  0
    5.0168    0.6509    0.0000 C   0  0  0  0  0  0  0  0  0  0  0  0
    4.7875   -0.1416    0.0000 C   0  0  3  0  0  0  0  0  0  0  0  0
    4.7280   -0.9644    0.0000 O   0  0  0  0  0  0  0  0  0  0  0  0
    5.4108   -1.4274    0.0000 C   0  0  0  0  0  0  0  0  0  0  0  0
    5.3513   -2.2502    0.0000 C   0  0  0  0  0  0  0  0  0  0  0  0
    6.1532   -1.0675    0.0000 O   0  0  0  0  0  0  0  0  0  0  0  0
    5.5996   -0.2868    0.0000 C   0  0  0  0  0  0  0  0  0  0  0  0
    6.1315    0.3439    0.0000 C   0  0  0  0  0  0  0  0  0  0  0  0
    6.2825   -0.7497    0.0000 O   0  0  0  0  0  0  0  0  0  0  0  0
    3.9629   -0.1684    0.0000 C   0  0  3  0  0  0  0  0  0  0  0  0
    4.3228   -0.9107    0.0000 C   0  0  0  0  0  0  0  0  0  0  0  0
    3.4311   -0.7991    0.0000 C   0  0  0  0  0  0  0  0  0  0  0  0
    2.6190   -0.6539    0.0000 C   0  0  0  0  0  0  0  0  0  0  0  0
    2.3387    0.1221    0.0000 C   0  0  3  0  0  0  0  0  0  0  0  0
    1.5266    0.2673    0.0000 C   0  0  3  0  0  0  0  0  0  0  0  0
    1.8069   -0.5086    0.0000 C   0  0  0  0  0  0  0  0  0  0  0  0
    0.9948   -0.3634    0.0000 C   0  0  0  0  0  0  0  0  0  0  0  0
    0.1827   -0.2182    0.0000 C   0  0  0  0  0  0  0  0  0  0  0  0
   -0.0976    0.5577    0.0000 C   0  0  0  0  0  0  0  0  0  0  0  0
   -0.9098    0.7029    0.0000 O   0  0  0  0  0  0  0  0  0  0  0  0
    0.4342    1.1884    0.0000 C   0  0  0  0  0  0  0  0  0  0  0  0
    1.2463    1.0432    0.0000 C   0  0  0  0  0  0  0  0  0  0  0  0
  1  2  1  0  0  0  0
  2  3  1  0  0  0  0
  2 28  1  0  0  0  0
  3  4  1  0  0  0  0
  4  5  1  0  0  0  0
  4 20  1  0  0  0  0
  5  6  1  0  0  0  0
  5 16  1  0  0  0  0
  6  7  1  0  0  0  0
  7  8  1  0  0  0  0
  8  9  1  0  0  0  0
  8 13  1  0  0  0  0
  8 16  1  0  0  0  0
  9 10  1  0  0  0  0
 10 11  1  0  0  0  0
 10 12  2  0  0  0  0
 13 14  1  0  0  0  0
 13 15  2  0  0  0  0
 16 17  1  0  0  0  0
 16 18  1  0  0  0  0
 18 19  1  0  0  0  0
 19 20  1  0  0  0  0
 20 21  1  0  0  0  0
 21 22  1  0  0  0  0
 21 23  1  0  0  0  0
 21 28  1  0  0  0  0
 23 24  1  0  0  0  0
 24 25  1  0  0  0  0
 25 26  2  0  0  0  0
 25 27  1  0  0  0  0
 27 28  2  0  0  0  0
M  END
$$$$

 OpenBabel12191814062D

 35 39  0  0  0  0  0  0  0  0999 V2000
    2.0630   -1.4167    0.0000 C   0  0  0  0  0  0  0  0  0  0  0  0
    2.8390   -1.6970    0.0000 C   0  0  3  0  0  0  0  0  0  0  0  0
    3.5218   -1.2340    0.0000 C   0  0  0  0  0  0  0  0  0  0  0  0
    4.1731   -1.7404    0.0000 C   0  0  3  0  0  0  0  0  0  0  0  0
    4.9853   -1.5952    0.0000 C   0  0  3  0  0  0  0  0  0  0  0  0
    5.2655   -0.8192    0.0000 C   0  0  0  0  0  0  0  0  0  0  0  0
    6.0777   -0.6740    0.0000 C   0  0  0  0  0  0  0  0  0  0  0  0
    6.6095   -1.3047    0.0000 C   0  0  0  0  0  0  0  0  0  0  0  0
    7.4216   -1.1595    0.0000 C   0  0  0  0  0  0  0  0  0  0  0  0
    7.9534   -1.7902    0.0000 C   0  0  0  0  0  0  0  0  0  0  0  0
    8.7655   -1.6450    0.0000 O   0  0  0  0  0  0  0  0  0  0  0  0
    7.6731   -2.5662    0.0000 C   0  0  0  0  0  0  0  0  0  0  0  0
    6.8610   -2.7114    0.0000 C   0  0  0  0  0  0  0  0  0  0  0  0
    6.3292   -2.0807    0.0000 C   0  0  3  0  0  0  0  0  0  0  0  0
    6.0489   -2.8566    0.0000 C   0  0  0  0  0  0  0  0  0  0  0  0
    5.5171   -2.2259    0.0000 C   0  0  3  0  0  0  0  0  0  0  0  0
    5.5766   -3.0487    0.0000 Cl  0  0  0  0  0  0  0  0  0  0  0  0
    5.2368   -3.0018    0.0000 C   0  0  3  0  0  0  0  0  0  0  0  0
    5.7686   -3.6325    0.0000 O   0  0  0  0  0  0  0  0  0  0  0  0
    4.4247   -3.1470    0.0000 C   0  0  0  0  0  0  0  0  0  0  0  0
    3.8928   -2.5163    0.0000 C   0  0  3  0  0  0  0  0  0  0  0  0
    3.5330   -3.2587    0.0000 C   0  0  0  0  0  0  0  0  0  0  0  0
    3.0683   -2.4895    0.0000 C   0  0  3  0  0  0  0  0  0  0  0  0
    2.3074   -2.8084    0.0000 O   0  0  0  0  0  0  0  0  0  0  0  0
    1.6508   -2.3089    0.0000 C   0  0  0  0  0  0  0  0  0  0  0  0
    1.7551   -1.4905    0.0000 O   0  0  0  0  0  0  0  0  0  0  0  0
    0.8899   -2.6277    0.0000 C   0  0  0  0  0  0  0  0  0  0  0  0
    0.7006   -3.4307    0.0000 C   0  0  0  0  0  0  0  0  0  0  0  0
   -0.1215   -3.4989    0.0000 C   0  0  0  0  0  0  0  0  0  0  0  0
   -0.4404   -2.7380    0.0000 C   0  0  0  0  0  0  0  0  0  0  0  0
    0.1847   -2.1996    0.0000 O   0  0  0  0  0  0  0  0  0  0  0  0
    2.9469   -3.3055    0.0000 C   0  0  0  0  0  0  0  0  0  0  0  0
    3.5929   -3.8187    0.0000 O   0  0  0  0  0  0  0  0  0  0  0  0
    2.1795   -3.6084    0.0000 C   0  0  0  0  0  0  0  0  0  0  0  0
    2.0581   -4.4244    0.0000 Cl  0  0  0  0  0  0  0  0  0  0  0  0
  1  2  1  0  0  0  0
  2  3  1  0  0  0  0
  2 23  1  0  0  0  0
  3  4  1  0  0  0  0
  4  5  1  0  0  0  0
  4 21  1  0  0  0  0
  5  6  1  0  0  0  0
  5 16  1  0  0  0  0
  6  7  1  0  0  0  0
  7  8  1  0  0  0  0
  8  9  2  0  0  0  0
  8 14  1  0  0  0  0
  9 10  1  0  0  0  0
 10 11  2  0  0  0  0
 10 12  1  0  0  0  0
 12 13  2  0  0  0  0
 13 14  1  0  0  0  0
 14 15  1  0  0  0  0
 14 16  1  0  0  0  0
 16 17  1  0  0  0  0
 16 18  1  0  0  0  0
 18 19  1  0  0  0  0
 18 20  1  0  0  0  0
 20 21  1  0  0  0  0
 21 22  1  0  0  0  0
 21 23  1  0  0  0  0
 23 24  1  0  0  0  0
 23 32  1  0  0  0  0
 24 25  1  0  0  0  0
 25 26  2  0  0  0  0
 25 27  1  0  0  0  0
 27 28  2  0  0  0  0
 27 31  1  0  0  0  0
 28 29  1  0  0  0  0
 29 30  2  0  0  0  0
 30 31  1  0  0  0  0
 32 33  2  0  0  0  0
 32 34  1  0  0  0  0
 34 35  1  0  0  0  0
M  END
$$$$

 OpenBabel12191814062D

 31 34  0  0  0  0  0  0  0  0999 V2000
    2.0630   -1.4167    0.0000 C   0  0  0  0  0  0  0  0  0  0  0  0
    2.8390   -1.6970    0.0000 C   0  0  3  0  0  0  0  0  0  0  0  0
    3.5218   -1.2340    0.0000 C   0  0  0  0  0  0  0  0  0  0  0  0
    4.1731   -1.7404    0.0000 C   0  0  3  0  0  0  0  0  0  0  0  0
    4.9853   -1.5952    0.0000 C   0  0  3  0  0  0  0  0  0  0  0  0
    5.2655   -0.8192    0.0000 C   0  0  0  0  0  0  0  0  0  0  0  0
    6.0777   -0.6740    0.0000 C   0  0  0  0  0  0  0  0  0  0  0  0
    6.6095   -1.3047    0.0000 C   0  0  0  0  0  0  0  0  0  0  0  0
    7.4216   -1.1595    0.0000 C   0  0  0  0  0  0  0  0  0  0  0  0
    7.9534   -1.7902    0.0000 C   0  0  0  0  0  0  0  0  0  0  0  0
    8.7655   -1.6450    0.0000 O   0  0  0  0  0  0  0  0  0  0  0  0
    7.6731   -2.5662    0.0000 C   0  0  0  0  0  0  0  0  0  0  0  0
    6.8610   -2.7114    0.0000 C   0  0  0  0  0  0  0  0  0  0  0  0
    6.3292   -2.0807    0.0000 C   0  0  3  0  0  0  0  0  0  0  0  0
    6.0489   -2.8566    0.0000 C   0  0  0  0  0  0  0  0  0  0  0  0
    5.5171   -2.2259    0.0000 C   0  0  3  0  0  0  0  0  0  0  0  0
    5.5766   -3.0487    0.0000 F   0  0  0  0  0  0  0  0  0  0  0  0
    5.2368   -3.0018    0.0000 C   0  0  3  0  0  0  0  0  0  0  0  0
    5.7686   -3.6325    0.0000 O   0  0  0  0  0  0  0  0  0  0  0  0
    4.4247   -3.1470    0.0000 C   0  0  0  0  0  0  0  0  0  0  0  0
    3.8928   -2.5163    0.0000 C   0  0  3  0  0  0  0  0  0  0  0  0
    3.5330   -3.2587    0.0000 C   0  0  0  0  0  0  0  0  0  0  0  0
    3.0683   -2.4895    0.0000 C   0  0  3  0  0  0  0  0  0  0  0  0
    2.9469   -3.3055    0.0000 O   0  0  0  0  0  0  0  0  0  0  0  0
    2.3074   -2.8084    0.0000 C   0  0  0  0  0  0  0  0  0  0  0  0
    2.2031   -3.6268    0.0000 O   0  0  0  0  0  0  0  0  0  0  0  0
    1.6508   -2.3089    0.0000 C   0  0  0  0  0  0  0  0  0  0  0  0
    0.8899   -2.6277    0.0000 O   0  0  0  0  0  0  0  0  0  0  0  0
    0.2333   -2.1282    0.0000 C   0  0  0  0  0  0  0  0  0  0  0  0
   -0.5276   -2.4471    0.0000 C   0  0  0  0  0  0  0  0  0  0  0  0
    0.3376   -1.3099    0.0000 O   0  0  0  0  0  0  0  0  0  0  0  0
  1  2  1  0  0  0  0
  2  3  1  0  0  0  0
  2 23  1  0  0  0  0
  3  4  1  0  0  0  0
  4  5  1  0  0  0  0
  4 21  1  0  0  0  0
  5  6  1  0  0  0  0
  5 16  1  0  0  0  0
  6  7  1  0  0  0  0
  7  8  1  0  0  0  0
  8  9  2  0  0  0  0
  8 14  1  0  0  0  0
  9 10  1  0  0  0  0
 10 11  2  0  0  0  0
 10 12  1  0  0  0  0
 12 13  2  0  0  0  0
 13 14  1  0  0  0  0
 14 15  1  0  0  0  0
 14 16  1  0  0  0  0
 16 17  1  0  0  0  0
 16 18  1  0  0  0  0
 18 19  1  0  0  0  0
 18 20  1  0  0  0  0
 20 21  1  0  0  0  0
 21 22  1  0  0  0  0
 21 23  1  0  0  0  0
 23 24  1  0  0  0  0
 23 25  1  0  0  0  0
 25 26  2  0  0  0  0
 25 27  1  0  0  0  0
 27 28  1  0  0  0  0
 28 29  1  0  0  0  0
 29 30  1  0  0  0  0
 29 31  2  0  0  0  0
M  END
$$$$

 OpenBabel12191814062D

 24 27  0  0  0  0  0  0  0  0999 V2000
    2.0630   -1.4167    0.0000 C   0  0  0  0  0  0  0  0  0  0  0  0
    2.8390   -1.6970    0.0000 C   0  0  3  0  0  0  0  0  0  0  0  0
    3.5218   -1.2340    0.0000 C   0  0  0  0  0  0  0  0  0  0  0  0
    4.1731   -1.7404    0.0000 C   0  0  3  0  0  0  0  0  0  0  0  0
    4.9853   -1.5952    0.0000 C   0  0  3  0  0  0  0  0  0  0  0  0
    5.2655   -0.8192    0.0000 C   0  0  0  0  0  0  0  0  0  0  0  0
    6.0777   -0.6740    0.0000 C   0  0  0  0  0  0  0  0  0  0  0  0
    6.6095   -1.3047    0.0000 C   0  0  0  0  0  0  0  0  0  0  0  0
    7.4216   -1.1595    0.0000 C   0  0  0  0  0  0  0  0  0  0  0  0
    7.9534   -1.7902    0.0000 C   0  0  0  0  0  0  0  0  0  0  0  0
    8.7655   -1.6450    0.0000 O   0  0  0  0  0  0  0  0  0  0  0  0
    7.6731   -2.5662    0.0000 C   0  0  0  0  0  0  0  0  0  0  0  0
    6.8610   -2.7114    0.0000 C   0  0  0  0  0  0  0  0  0  0  0  0
    6.3292   -2.0807    0.0000 C   0  0  3  0  0  0  0  0  0  0  0  0
    6.0489   -2.8566    0.0000 C   0  0  0  0  0  0  0  0  0  0  0  0
    5.5171   -2.2259    0.0000 C   0  0  3  0  0  0  0  0  0  0  0  0
    5.2368   -3.0018    0.0000 C   0  0  0  0  0  0  0  0  0  0  0  0
    4.4247   -3.1470    0.0000 C   0  0  0  0  0  0  0  0  0  0  0  0
    3.8928   -2.5163    0.0000 C   0  0  3  0  0  0  0  0  0  0  0  0
    3.5330   -3.2587    0.0000 C   0  0  0  0  0  0  0  0  0  0  0  0
    3.0683   -2.4895    0.0000 C   0  0  3  0  0  0  0  0  0  0  0  0
    2.5619   -3.1408    0.0000 C   0  0  0  0  0  0  0  0  0  0  0  0
    2.8728   -3.9050    0.0000 C   0  0  0  0  0  0  0  0  0  0  0  0
    1.7447   -3.0280    0.0000 O   0  0  0  0  0  0  0  0  0  0  0  0
  1  2  1  0  0  0  0
  2  3  1  0  0  0  0
  2 21  1  0  0  0  0
  3  4  1  0  0  0  0
  4  5  1  0  0  0  0
  4 19  1  0  0  0  0
  5  6  1  0  0  0  0
  5 16  1  0  0  0  0
  6  7  1  0  0  0  0
  7  8  1  0  0  0  0
  8  9  2  0  0  0  0
  8 14  1  0  0  0  0
  9 10  1  0  0  0  0
 10 11  2  0  0  0  0
 10 12  1  0  0  0  0
 12 13  1  0  0  0  0
 13 14  1  0  0  0  0
 14 15  1  0  0  0  0
 14 16  1  0  0  0  0
 16 17  1  0  0  0  0
 17 18  1  0  0  0  0
 18 19  1  0  0  0  0
 19 20  1  0  0  0  0
 19 21  1  0  0  0  0
 21 22  1  0  0  0  0
 22 23  1  0  0  0  0
 22 24  2  0  0  0  0
M  END
$$$$

 OpenBabel12191814062D

 30 33  0  0  0  0  0  0  0  0999 V2000
    0.0000    0.0000    0.0000 C   0  0  0  0  0  0  0  0  0  0  0  0
    0.7145   -0.4125    0.0000 C   0  0  0  0  0  0  0  0  0  0  0  0
    1.4289    0.0000    0.0000 C   0  0  0  0  0  0  0  0  0  0  0  0
    2.1434   -0.4125    0.0000 C   0  0  0  0  0  0  0  0  0  0  0  0
    2.8579    0.0000    0.0000 C   0  0  0  0  0  0  0  0  0  0  0  0
    3.5724   -0.4125    0.0000 C   0  0  0  0  0  0  0  0  0  0  0  0
    3.5724   -1.2375    0.0000 C   0  0  0  0  0  0  0  0  0  0  0  0
    2.8579   -1.6500    0.0000 C   0  0  0  0  0  0  0  0  0  0  0  0
    2.1434   -1.2375    0.0000 C   0  0  0  0  0  0  0  0  0  0  0  0
    1.4289   -1.6500    0.0000 C   0  0  0  0  0  0  0  0  0  0  0  0
    1.4289   -2.4750    0.0000 C   0  0  0  0  0  0  0  0  0  0  0  0
    0.7145   -1.2375    0.0000 N   0  0  0  0  0  0  0  0  0  0  0  0
    4.2868   -0.0000    0.0000 N   0  0  0  0  0  0  0  0  0  0  0  0
    4.2868    0.8250    0.0000 C   0  0  0  0  0  0  0  0  0  0  0  0
    5.0013    1.2375    0.0000 C   0  0  0  0  0  0  0  0  0  0  0  0
    5.7158    0.8250    0.0000 N   0  0  0  0  0  0  0  0  0  0  0  0
    6.4302    1.2375    0.0000 C   0  0  0  0  0  0  0  0  0  0  0  0
    6.4302    2.0625    0.0000 C   0  0  0  0  0  0  0  0  0  0  0  0
    7.1447    2.4750    0.0000 C   0  0  0  0  0  0  0  0  0  0  0  0
    7.1447    3.3000    0.0000 C   0  0  0  0  0  0  0  0  0  0  0  0
    6.4302    3.7125    0.0000 O   0  0  0  0  0  0  0  0  0  0  0  0
    7.8592    3.7125    0.0000 C   0  0  0  0  0  0  0  0  0  0  0  0
    7.8592    4.5375    0.0000 C   0  0  0  0  0  0  0  0  0  0  0  0
    8.5737    4.9500    0.0000 C   0  0  0  0  0  0  0  0  0  0  0  0
    9.2881    4.5375    0.0000 C   0  0  0  0  0  0  0  0  0  0  0  0
   10.0026    4.9500    0.0000 F   0  0  0  0  0  0  0  0  0  0  0  0
    9.2881    3.7125    0.0000 C   0  0  0  0  0  0  0  0  0  0  0  0
    8.5737    3.3000    0.0000 C   0  0  0  0  0  0  0  0  0  0  0  0
    5.7158   -0.0000    0.0000 C   0  0  0  0  0  0  0  0  0  0  0  0
    5.0013   -0.4125    0.0000 C   0  0  0  0  0  0  0  0  0  0  0  0
  1  2  1  0  0  0  0
  2  3  2  0  0  0  0
  2 12  1  0  0  0  0
  3  4  1  0  0  0  0
  4  5  2  0  0  0  0
  4  9  1  0  0  0  0
  5  6  1  0  0  0  0
  6  7  2  0  0  0  0
  6 13  1  0  0  0  0
  7  8  1  0  0  0  0
  8  9  2  0  0  0  0
  9 10  1  0  0  0  0
 10 11  1  0  0  0  0
 10 12  2  0  0  0  0
 13 14  1  0  0  0  0
 13 30  1  0  0  0  0
 14 15  1  0  0  0  0
 15 16  1  0  0  0  0
 16 17  1  0  0  0  0
 16 29  1  0  0  0  0
 17 18  1  0  0  0  0
 18 19  1  0  0  0  0
 19 20  1  0  0  0  0
 20 21  2  0  0  0  0
 20 22  1  0  0  0  0
 22 23  2  0  0  0  0
 22 28  1  0  0  0  0
 23 24  1  0  0  0  0
 24 25  2  0  0  0  0
 25 26  1  0  0  0  0
 25 27  1  0  0  0  0
 27 28  2  0  0  0  0
 29 30  1  0  0  0  0
M  END
$$$$

 OpenBabel12191814062D

 29 32  0  0  0  0  0  0  0  0999 V2000
    0.0000    0.0000    0.0000 C   0  0  0  0  0  0  0  0  0  0  0  0
    0.7145   -0.4125    0.0000 C   0  0  0  0  0  0  0  0  0  0  0  0
    1.4289    0.0000    0.0000 C   0  0  0  0  0  0  0  0  0  0  0  0
    2.1434   -0.4125    0.0000 C   0  0  0  0  0  0  0  0  0  0  0  0
    2.8579    0.0000    0.0000 C   0  0  0  0  0  0  0  0  0  0  0  0
    3.5724   -0.4125    0.0000 C   0  0  0  0  0  0  0  0  0  0  0  0
    3.5724   -1.2375    0.0000 C   0  0  0  0  0  0  0  0  0  0  0  0
    2.8579   -1.6500    0.0000 C   0  0  0  0  0  0  0  0  0  0  0  0
    2.1434   -1.2375    0.0000 C   0  0  0  0  0  0  0  0  0  0  0  0
    1.4289   -1.6500    0.0000 C   0  0  0  0  0  0  0  0  0  0  0  0
    0.7145   -1.2375    0.0000 N   0  0  0  0  0  0  0  0  0  0  0  0
    4.2868   -0.0000    0.0000 N   0  0  0  0  0  0  0  0  0  0  0  0
    4.2868    0.8250    0.0000 C   0  0  0  0  0  0  0  0  0  0  0  0
    5.0013    1.2375    0.0000 C   0  0  0  0  0  0  0  0  0  0  0  0
    5.7158    0.8250    0.0000 N   0  0  0  0  0  0  0  0  0  0  0  0
    6.4302    1.2375    0.0000 C   0  0  0  0  0  0  0  0  0  0  0  0
    6.4302    2.0625    0.0000 C   0  0  0  0  0  0  0  0  0  0  0  0
    7.1447    2.4750    0.0000 C   0  0  0  0  0  0  0  0  0  0  0  0
    7.1447    3.3000    0.0000 C   0  0  0  0  0  0  0  0  0  0  0  0
    6.4302    3.7125    0.0000 O   0  0  0  0  0  0  0  0  0  0  0  0
    7.8592    3.7125    0.0000 C   0  0  0  0  0  0  0  0  0  0  0  0
    7.8592    4.5375    0.0000 C   0  0  0  0  0  0  0  0  0  0  0  0
    8.5737    4.9500    0.0000 C   0  0  0  0  0  0  0  0  0  0  0  0
    9.2881    4.5375    0.0000 C   0  0  0  0  0  0  0  0  0  0  0  0
   10.0026    4.9500    0.0000 Cl  0  0  0  0  0  0  0  0  0  0  0  0
    9.2881    3.7125    0.0000 C   0  0  0  0  0  0  0  0  0  0  0  0
    8.5737    3.3000    0.0000 C   0  0  0  0  0  0  0  0  0  0  0  0
    5.7158   -0.0000    0.0000 C   0  0  0  0  0  0  0  0  0  0  0  0
    5.0013   -0.4125    0.0000 C   0  0  0  0  0  0  0  0  0  0  0  0
  1  2  1  0  0  0  0
  2  3  2  0  0  0  0
  2 11  1  0  0  0  0
  3  4  1  0  0  0  0
  4  5  2  0  0  0  0
  4  9  1  0  0  0  0
  5  6  1  0  0  0  0
  6  7  2  0  0  0  0
  6 12  1  0  0  0  0
  7  8  1  0  0  0  0
  8  9  2  0  0  0  0
  9 10  1  0  0  0  0
 10 11  2  0  0  0  0
 12 13  1  0  0  0  0
 12 29  1  0  0  0  0
 13 14  1  0  0  0  0
 14 15  1  0  0  0  0
 15 16  1  0  0  0  0
 15 28  1  0  0  0  0
 16 17  1  0  0  0  0
 17 18  1  0  0  0  0
 18 19  1  0  0  0  0
 19 20  2  0  0  0  0
 19 21  1  0  0  0  0
 21 22  2  0  0  0  0
 21 27  1  0  0  0  0
 22 23  1  0  0  0  0
 23 24  2  0  0  0  0
 24 25  1  0  0  0  0
 24 26  1  0  0  0  0
 26 27  2  0  0  0  0
 28 29  1  0  0  0  0
M  END
$$$$

 OpenBabel12191814062D

 29 32  0  0  0  0  0  0  0  0999 V2000
    0.0000    0.0000    0.0000 C   0  0  0  0  0  0  0  0  0  0  0  0
    0.7145   -0.4125    0.0000 C   0  0  0  0  0  0  0  0  0  0  0  0
    1.4289    0.0000    0.0000 C   0  0  0  0  0  0  0  0  0  0  0  0
    2.1434   -0.4125    0.0000 C   0  0  0  0  0  0  0  0  0  0  0  0
    2.8579    0.0000    0.0000 C   0  0  0  0  0  0  0  0  0  0  0  0
    3.5724   -0.4125    0.0000 C   0  0  0  0  0  0  0  0  0  0  0  0
    3.5724   -1.2375    0.0000 C   0  0  0  0  0  0  0  0  0  0  0  0
    2.8579   -1.6500    0.0000 C   0  0  0  0  0  0  0  0  0  0  0  0
    2.1434   -1.2375    0.0000 C   0  0  0  0  0  0  0  0  0  0  0  0
    1.4289   -1.6500    0.0000 C   0  0  0  0  0  0  0  0  0  0  0  0
    0.7145   -1.2375    0.0000 N   0  0  0  0  0  0  0  0  0  0  0  0
    4.2868   -0.0000    0.0000 N   0  0  0  0  0  0  0  0  0  0  0  0
    4.2868    0.8250    0.0000 C   0  0  0  0  0  0  0  0  0  0  0  0
    5.0013    1.2375    0.0000 C   0  0  0  0  0  0  0  0  0  0  0  0
    5.7158    0.8250    0.0000 N   0  0  0  0  0  0  0  0  0  0  0  0
    6.4302    1.2375    0.0000 C   0  0  0  0  0  0  0  0  0  0  0  0
    6.4302    2.0625    0.0000 C   0  0  0  0  0  0  0  0  0  0  0  0
    7.1447    2.4750    0.0000 C   0  0  0  0  0  0  0  0  0  0  0  0
    7.1447    3.3000    0.0000 C   0  0  0  0  0  0  0  0  0  0  0  0
    6.4302    3.7125    0.0000 O   0  0  0  0  0  0  0  0  0  0  0  0
    7.8592    3.7125    0.0000 C   0  0  0  0  0  0  0  0  0  0  0  0
    7.8592    4.5375    0.0000 C   0  0  0  0  0  0  0  0  0  0  0  0
    8.5737    4.9500    0.0000 C   0  0  0  0  0  0  0  0  0  0  0  0
    9.2881    4.5375    0.0000 C   0  0  0  0  0  0  0  0  0  0  0  0
   10.0026    4.9500    0.0000 F   0  0  0  0  0  0  0  0  0  0  0  0
    9.2881    3.7125    0.0000 C   0  0  0  0  0  0  0  0  0  0  0  0
    8.5737    3.3000    0.0000 C   0  0  0  0  0  0  0  0  0  0  0  0
    5.7158   -0.0000    0.0000 C   0  0  0  0  0  0  0  0  0  0  0  0
    5.0013   -0.4125    0.0000 C   0  0  0  0  0  0  0  0  0  0  0  0
  1  2  1  0  0  0  0
  2  3  2  0  0  0  0
  2 11  1  0  0  0  0
  3  4  1  0  0  0  0
  4  5  2  0  0  0  0
  4  9  1  0  0  0  0
  5  6  1  0  0  0  0
  6  7  2  0  0  0  0
  6 12  1  0  0  0  0
  7  8  1  0  0  0  0
  8  9  2  0  0  0  0
  9 10  1  0  0  0  0
 10 11  2  0  0  0  0
 12 13  1  0  0  0  0
 12 29  1  0  0  0  0
 13 14  1  0  0  0  0
 14 15  1  0  0  0  0
 15 16  1  0  0  0  0
 15 28  1  0  0  0  0
 16 17  1  0  0  0  0
 17 18  1  0  0  0  0
 18 19  1  0  0  0  0
 19 20  2  0  0  0  0
 19 21  1  0  0  0  0
 21 22  2  0  0  0  0
 21 27  1  0  0  0  0
 22 23  1  0  0  0  0
 23 24  2  0  0  0  0
 24 25  1  0  0  0  0
 24 26  1  0  0  0  0
 26 27  2  0  0  0  0
 28 29  1  0  0  0  0
M  END
$$$$

 OpenBabel12191814062D

 30 33  0  0  0  0  0  0  0  0999 V2000
    0.6078    1.1759    0.0000 C   0  0  0  0  0  0  0  0  0  0  0  0
    1.3222    0.7634    0.0000 C   0  0  0  0  0  0  0  0  0  0  0  0
    2.0367    1.1759    0.0000 C   0  0  0  0  0  0  0  0  0  0  0  0
    2.7512    0.7634    0.0000 C   0  0  0  0  0  0  0  0  0  0  0  0
    2.7512   -0.0616    0.0000 C   0  0  0  0  0  0  0  0  0  0  0  0
    2.0367   -0.4741    0.0000 C   0  0  0  0  0  0  0  0  0  0  0  0
    1.3222   -0.0616    0.0000 C   0  0  0  0  0  0  0  0  0  0  0  0
    3.4656   -0.4741    0.0000 C   0  0  0  0  0  0  0  0  0  0  0  0
    3.4656   -1.2991    0.0000 C   0  0  0  0  0  0  0  0  0  0  0  0
    2.7512   -1.7116    0.0000 C   0  0  0  0  0  0  0  0  0  0  0  0
    2.7512   -2.5366    0.0000 N   0  0  0  0  0  0  0  0  0  0  0  0
    3.4186   -3.0215    0.0000 C   0  0  0  0  0  0  0  0  0  0  0  0
    3.1637   -3.8062    0.0000 C   0  0  0  0  0  0  0  0  0  0  0  0
    2.3387   -3.8062    0.0000 C   0  0  0  0  0  0  0  0  0  0  0  0
    2.0837   -3.0215    0.0000 C   0  0  0  0  0  0  0  0  0  0  0  0
    4.1801   -0.0616    0.0000 C   0  0  0  0  0  0  0  0  0  0  0  0
    4.1801    0.7634    0.0000 C   0  0  0  0  0  0  0  0  0  0  0  0
    4.8946    1.1759    0.0000 C   0  0  0  0  0  0  0  0  0  0  0  0
    5.6091    0.7634    0.0000 C   0  0  0  0  0  0  0  0  0  0  0  0
    5.6091   -0.0616    0.0000 C   0  0  0  0  0  0  0  0  0  0  0  0
    6.3235   -0.4741    0.0000 C   0  0  0  0  0  0  0  0  0  0  0  0
    6.3235   -1.2991    0.0000 C   0  0  0  0  0  0  0  0  0  0  0  0
    7.0380   -1.7116    0.0000 C   0  0  0  0  0  0  0  0  0  0  0  0
    7.7525   -1.2991    0.0000 O   0  0  0  0  0  0  0  0  0  0  0  0
    7.0380   -2.5366    0.0000 N   0  0  0  0  0  0  0  0  0  0  0  0
    7.7054   -3.0215    0.0000 C   0  0  0  0  0  0  0  0  0  0  0  0
    7.4505   -3.8062    0.0000 C   0  0  0  0  0  0  0  0  0  0  0  0
    6.6255   -3.8062    0.0000 C   0  0  0  0  0  0  0  0  0  0  0  0
    6.3706   -3.0215    0.0000 C   0  0  0  0  0  0  0  0  0  0  0  0
    4.8946   -0.4741    0.0000 N   0  0  0  0  0  0  0  0  0  0  0  0
  1  2  1  0  0  0  0
  2  3  2  0  0  0  0
  2  7  1  0  0  0  0
  3  4  1  0  0  0  0
  4  5  2  0  0  0  0
  5  6  1  0  0  0  0
  5  8  1  0  0  0  0
  6  7  2  0  0  0  0
  8  9  2  0  0  0  0
  8 16  1  0  0  0  0
  9 10  1  0  0  0  0
 10 11  1  0  0  0  0
 11 12  1  0  0  0  0
 11 15  1  0  0  0  0
 12 13  1  0  0  0  0
 13 14  1  0  0  0  0
 14 15  1  0  0  0  0
 16 17  2  0  0  0  0
 16 30  1  0  0  0  0
 17 18  1  0  0  0  0
 18 19  2  0  0  0  0
 19 20  1  0  0  0  0
 20 21  1  0  0  0  0
 20 30  2  0  0  0  0
 21 22  2  0  0  0  0
 22 23  1  0  0  0  0
 23 24  2  0  0  0  0
 23 25  1  0  0  0  0
 25 26  1  0  0  0  0
 25 29  1  0  0  0  0
 26 27  1  0  0  0  0
 27 28  1  0  0  0  0
 28 29  1  0  0  0  0
M  END
$$$$

 OpenBabel12191814062D

 31 34  0  0  0  0  0  0  0  0999 V2000
    2.8579    4.7036    0.0000 C   0  0  0  0  0  0  0  0  0  0  0  0
    3.5724    4.2911    0.0000 C   0  0  0  0  0  0  0  0  0  0  0  0
    4.2868    4.7036    0.0000 C   0  0  0  0  0  0  0  0  0  0  0  0
    5.0013    4.2911    0.0000 C   0  0  0  0  0  0  0  0  0  0  0  0
    5.0013    3.4661    0.0000 C   0  0  0  0  0  0  0  0  0  0  0  0
    4.2868    3.0536    0.0000 C   0  0  0  0  0  0  0  0  0  0  0  0
    3.5724    3.4661    0.0000 C   0  0  0  0  0  0  0  0  0  0  0  0
    5.7158    3.0536    0.0000 C   0  0  0  0  0  0  0  0  0  0  0  0
    5.7158    2.2286    0.0000 C   0  0  0  0  0  0  0  0  0  0  0  0
    5.0013    1.8161    0.0000 C   0  0  0  0  0  0  0  0  0  0  0  0
    5.0013    0.9911    0.0000 N   0  0  0  0  0  0  0  0  0  0  0  0
    5.6687    0.5062    0.0000 C   0  0  0  0  0  0  0  0  0  0  0  0
    5.4138   -0.2785    0.0000 C   0  0  0  0  0  0  0  0  0  0  0  0
    4.5888   -0.2785    0.0000 C   0  0  0  0  0  0  0  0  0  0  0  0
    4.3339    0.5062    0.0000 C   0  0  0  0  0  0  0  0  0  0  0  0
    6.4302    3.4661    0.0000 C   0  0  0  0  0  0  0  0  0  0  0  0
    6.4302    4.2911    0.0000 C   0  0  0  0  0  0  0  0  0  0  0  0
    7.1447    4.7036    0.0000 C   0  0  0  0  0  0  0  0  0  0  0  0
    7.8592    4.2911    0.0000 C   0  0  0  0  0  0  0  0  0  0  0  0
    7.8592    3.4661    0.0000 C   0  0  0  0  0  0  0  0  0  0  0  0
    8.5737    3.0536    0.0000 C   0  0  0  0  0  0  0  0  0  0  0  0
    8.5737    2.2286    0.0000 C   0  0  0  0  0  0  0  0  0  0  0  0
    9.2881    1.8161    0.0000 C   0  0  0  0  0  0  0  0  0  0  0  0
   10.0026    2.2286    0.0000 O   0  0  0  0  0  0  0  0  0  0  0  0
    9.2881    0.9911    0.0000 N   0  0  0  0  0  0  0  0  0  0  0  0
   10.0026    0.5786    0.0000 C   0  0  0  0  0  0  0  0  0  0  0  0
   10.0026   -0.2464    0.0000 C   0  0  0  0  0  0  0  0  0  0  0  0
    9.2881   -0.6589    0.0000 C   0  0  0  0  0  0  0  0  0  0  0  0
    8.5737   -0.2464    0.0000 C   0  0  0  0  0  0  0  0  0  0  0  0
    8.5737    0.5786    0.0000 C   0  0  0  0  0  0  0  0  0  0  0  0
    7.1447    3.0536    0.0000 N   0  0  0  0  0  0  0  0  0  0  0  0
  1  2  1  0  0  0  0
  2  3  2  0  0  0  0
  2  7  1  0  0  0  0
  3  4  1  0  0  0  0
  4  5  2  0  0  0  0
  5  6  1  0  0  0  0
  5  8  1  0  0  0  0
  6  7  2  0  0  0  0
  8  9  2  0  0  0  0
  8 16  1  0  0  0  0
  9 10  1  0  0  0  0
 10 11  1  0  0  0  0
 11 12  1  0  0  0  0
 11 15  1  0  0  0  0
 12 13  1  0  0  0  0
 13 14  1  0  0  0  0
 14 15  1  0  0  0  0
 16 17  2  0  0  0  0
 16 31  1  0  0  0  0
 17 18  1  0  0  0  0
 18 19  2  0  0  0  0
 19 20  1  0  0  0  0
 20 21  1  0  0  0  0
 20 31  2  0  0  0  0
 21 22  2  0  0  0  0
 22 23  1  0  0  0  0
 23 24  2  0  0  0  0
 23 25  1  0  0  0  0
 25 26  1  0  0  0  0
 25 30  1  0  0  0  0
 26 27  1  0  0  0  0
 27 28  1  0  0  0  0
 28 29  1  0  0  0  0
 29 30  1  0  0  0  0
M  END
$$$$

 OpenBabel12191814062D

 31 34  0  0  0  0  0  0  0  0999 V2000
    2.8579    4.7036    0.0000 C   0  0  0  0  0  0  0  0  0  0  0  0
    3.5724    4.2911    0.0000 C   0  0  0  0  0  0  0  0  0  0  0  0
    4.2868    4.7036    0.0000 C   0  0  0  0  0  0  0  0  0  0  0  0
    5.0013    4.2911    0.0000 C   0  0  0  0  0  0  0  0  0  0  0  0
    5.0013    3.4661    0.0000 C   0  0  0  0  0  0  0  0  0  0  0  0
    4.2868    3.0536    0.0000 C   0  0  0  0  0  0  0  0  0  0  0  0
    3.5724    3.4661    0.0000 C   0  0  0  0  0  0  0  0  0  0  0  0
    5.7158    3.0536    0.0000 C   0  0  0  0  0  0  0  0  0  0  0  0
    5.7158    2.2286    0.0000 C   0  0  0  0  0  0  0  0  0  0  0  0
    5.0013    1.8161    0.0000 C   0  0  0  0  0  0  0  0  0  0  0  0
    5.0013    0.9911    0.0000 N   0  0  0  0  0  0  0  0  0  0  0  0
    5.6687    0.5062    0.0000 C   0  0  0  0  0  0  0  0  0  0  0  0
    5.4138   -0.2785    0.0000 C   0  0  0  0  0  0  0  0  0  0  0  0
    4.5888   -0.2785    0.0000 C   0  0  0  0  0  0  0  0  0  0  0  0
    4.3339    0.5062    0.0000 C   0  0  0  0  0  0  0  0  0  0  0  0
    6.4302    3.4661    0.0000 C   0  0  0  0  0  0  0  0  0  0  0  0
    6.4302    4.2911    0.0000 C   0  0  0  0  0  0  0  0  0  0  0  0
    7.1447    4.7036    0.0000 C   0  0  0  0  0  0  0  0  0  0  0  0
    7.8592    4.2911    0.0000 C   0  0  0  0  0  0  0  0  0  0  0  0
    7.8592    3.4661    0.0000 C   0  0  0  0  0  0  0  0  0  0  0  0
    8.5737    3.0536    0.0000 C   0  0  0  0  0  0  0  0  0  0  0  0
    8.5737    2.2286    0.0000 C   0  0  0  0  0  0  0  0  0  0  0  0
    9.2881    1.8161    0.0000 C   0  0  0  0  0  0  0  0  0  0  0  0
   10.0026    2.2286    0.0000 O   0  0  0  0  0  0  0  0  0  0  0  0
    9.2881    0.9911    0.0000 N   0  0  0  0  0  0  0  0  0  0  0  0
   10.0026    0.5786    0.0000 C   0  0  0  0  0  0  0  0  0  0  0  0
   10.0026   -0.2464    0.0000 C   0  0  0  0  0  0  0  0  0  0  0  0
    9.2881   -0.6589    0.0000 O   0  0  0  0  0  0  0  0  0  0  0  0
    8.5737   -0.2464    0.0000 C   0  0  0  0  0  0  0  0  0  0  0  0
    8.5737    0.5786    0.0000 C   0  0  0  0  0  0  0  0  0  0  0  0
    7.1447    3.0536    0.0000 N   0  0  0  0  0  0  0  0  0  0  0  0
  1  2  1  0  0  0  0
  2  3  2  0  0  0  0
  2  7  1  0  0  0  0
  3  4  1  0  0  0  0
  4  5  2  0  0  0  0
  5  6  1  0  0  0  0
  5  8  1  0  0  0  0
  6  7  2  0  0  0  0
  8  9  2  0  0  0  0
  8 16  1  0  0  0  0
  9 10  1  0  0  0  0
 10 11  1  0  0  0  0
 11 12  1  0  0  0  0
 11 15  1  0  0  0  0
 12 13  1  0  0  0  0
 13 14  1  0  0  0  0
 14 15  1  0  0  0  0
 16 17  2  0  0  0  0
 16 31  1  0  0  0  0
 17 18  1  0  0  0  0
 18 19  2  0  0  0  0
 19 20  1  0  0  0  0
 20 21  1  0  0  0  0
 20 31  2  0  0  0  0
 21 22  2  0  0  0  0
 22 23  1  0  0  0  0
 23 24  2  0  0  0  0
 23 25  1  0  0  0  0
 25 26  1  0  0  0  0
 25 30  1  0  0  0  0
 26 27  1  0  0  0  0
 27 28  1  0  0  0  0
 28 29  1  0  0  0  0
 29 30  1  0  0  0  0
M  END
$$$$

 OpenBabel12191814062D

 21 23  0  0  0  0  0  0  0  0999 V2000
    0.8212    1.1759    0.0000 C   0  0  0  0  0  0  0  0  0  0  0  0
    0.1067    0.7634    0.0000 C   0  0  0  0  0  0  0  0  0  0  0  0
    0.1067   -0.0616    0.0000 C   0  0  0  0  0  0  0  0  0  0  0  0
   -0.6078   -0.4741    0.0000 C   0  0  0  0  0  0  0  0  0  0  0  0
   -1.3222   -0.0616    0.0000 C   0  0  0  0  0  0  0  0  0  0  0  0
   -1.3222    0.7634    0.0000 C   0  0  0  0  0  0  0  0  0  0  0  0
   -0.6078    1.1759    0.0000 C   0  0  0  0  0  0  0  0  0  0  0  0
   -2.0367   -0.4741    0.0000 C   0  0  0  0  0  0  0  0  0  0  0  0
   -2.0367   -1.2991    0.0000 C   0  0  0  0  0  0  0  0  0  0  0  0
   -1.3222   -1.7116    0.0000 C   0  0  0  0  0  0  0  0  0  0  0  0
   -1.3222   -2.5366    0.0000 N   0  0  0  0  0  0  0  0  0  0  0  0
   -0.6548   -3.0215    0.0000 C   0  0  0  0  0  0  0  0  0  0  0  0
   -0.9097   -3.8062    0.0000 C   0  0  0  0  0  0  0  0  0  0  0  0
   -1.7347   -3.8062    0.0000 C   0  0  0  0  0  0  0  0  0  0  0  0
   -1.9897   -3.0215    0.0000 C   0  0  0  0  0  0  0  0  0  0  0  0
   -2.7512   -0.0616    0.0000 C   0  0  0  0  0  0  0  0  0  0  0  0
   -3.4656   -0.4741    0.0000 C   0  0  0  0  0  0  0  0  0  0  0  0
   -4.1801   -0.0616    0.0000 C   0  0  0  0  0  0  0  0  0  0  0  0
   -4.1801    0.7634    0.0000 C   0  0  0  0  0  0  0  0  0  0  0  0
   -3.4656    1.1759    0.0000 C   0  0  0  0  0  0  0  0  0  0  0  0
   -2.7512    0.7634    0.0000 N   0  0  0  0  0  0  0  0  0  0  0  0
  1  2  1  0  0  0  0
  2  3  2  0  0  0  0
  2  7  1  0  0  0  0
  3  4  1  0  0  0  0
  4  5  2  0  0  0  0
  5  6  1  0  0  0  0
  5  8  1  0  0  0  0
  6  7  2  0  0  0  0
  8  9  2  0  0  0  0
  8 16  1  0  0  0  0
  9 10  1  0  0  0  0
 10 11  1  0  0  0  0
 11 12  1  0  0  0  0
 11 15  1  0  0  0  0
 12 13  1  0  0  0  0
 13 14  1  0  0  0  0
 14 15  1  0  0  0  0
 16 17  2  0  0  0  0
 16 21  1  0  0  0  0
 17 18  1  0  0  0  0
 18 19  2  0  0  0  0
 19 20  1  0  0  0  0
 20 21  2  0  0  0  0
M  END
$$$$

 OpenBabel12191814062D

 35 38  0  0  0  0  0  0  0  0999 V2000
    6.4302   -5.3625    0.0000 C   0  0  0  0  0  0  0  0  0  0  0  0
    6.4302   -6.1875    0.0000 C   0  0  0  0  0  0  0  0  0  0  0  0
    7.1447   -6.6000    0.0000 C   0  0  0  0  0  0  0  0  0  0  0  0
    7.1447   -7.4250    0.0000 C   0  0  0  0  0  0  0  0  0  0  0  0
    6.4302   -7.8375    0.0000 C   0  0  0  0  0  0  0  0  0  0  0  0
    6.4302   -8.6625    0.0000 C   0  0  0  0  0  0  0  0  0  0  0  0
    7.1447   -9.0750    0.0000 C   0  0  0  0  0  0  0  0  0  0  0  0
    7.1447   -9.9000    0.0000 C   0  0  0  0  0  0  0  0  0  0  0  0
    6.4302  -10.3125    0.0000 O   0  0  0  0  0  0  0  0  0  0  0  0
    7.8592  -10.3125    0.0000 C   0  0  0  0  0  0  0  0  0  0  0  0
    8.5737   -9.9000    0.0000 C   0  0  0  0  0  0  0  0  0  0  0  0
    9.2881  -10.3125    0.0000 C   0  0  0  0  0  0  0  0  0  0  0  0
    9.2881  -11.1375    0.0000 C   0  0  0  0  0  0  0  0  0  0  0  0
    8.5737  -11.5500    0.0000 C   0  0  0  0  0  0  0  0  0  0  0  0
    7.8592  -11.1375    0.0000 C   0  0  0  0  0  0  0  0  0  0  0  0
    7.1447  -11.5500    0.0000 O   0  0  0  0  0  0  0  0  0  0  0  0
    7.1447  -12.3750    0.0000 C   0  0  0  0  0  0  0  0  0  0  0  0
    6.4302  -12.7875    0.0000 C   0  0  3  0  0  0  0  0  0  0  0  0
    5.7158  -12.3750    0.0000 O   0  0  0  0  0  0  0  0  0  0  0  0
    6.4302  -13.6125    0.0000 C   0  0  0  0  0  0  0  0  0  0  0  0
    5.7158  -14.0250    0.0000 N   0  0  0  0  0  0  0  0  0  0  0  0
    5.7158  -14.8500    0.0000 C   0  0  0  0  0  0  0  0  0  0  0  0
    5.0013  -15.2625    0.0000 C   0  0  0  0  0  0  0  0  0  0  0  0
    4.2868  -14.8500    0.0000 N   0  0  0  0  0  0  0  0  0  0  0  0
    4.2868  -14.0250    0.0000 C   0  0  0  0  0  0  0  0  0  0  0  0
    5.0013  -13.6125    0.0000 C   0  0  0  0  0  0  0  0  0  0  0  0
    3.5724  -15.2625    0.0000 C   0  0  0  0  0  0  0  0  0  0  0  0
    3.5724  -16.0875    0.0000 C   0  0  0  0  0  0  0  0  0  0  0  0
    2.8579  -16.5000    0.0000 C   0  0  0  0  0  0  0  0  0  0  0  0
    2.1434  -16.0875    0.0000 C   0  0  0  0  0  0  0  0  0  0  0  0
    2.1434  -15.2625    0.0000 C   0  0  0  0  0  0  0  0  0  0  0  0
    2.8579  -14.8500    0.0000 C   0  0  0  0  0  0  0  0  0  0  0  0
    2.8579  -14.0250    0.0000 C   0  0  0  0  0  0  0  0  0  0  0  0
    5.7158   -7.4250    0.0000 C   0  0  0  0  0  0  0  0  0  0  0  0
    5.7158   -6.6000    0.0000 C   0  0  0  0  0  0  0  0  0  0  0  0
  1  2  1  0  0  0  0
  2  3  2  0  0  0  0
  2 35  1  0  0  0  0
  3  4  1  0  0  0  0
  4  5  2  0  0  0  0
  5  6  1  0  0  0  0
  5 34  1  0  0  0  0
  6  7  1  0  0  0  0
  7  8  1  0  0  0  0
  8  9  2  0  0  0  0
  8 10  1  0  0  0  0
 10 11  2  0  0  0  0
 10 15  1  0  0  0  0
 11 12  1  0  0  0  0
 12 13  2  0  0  0  0
 13 14  1  0  0  0  0
 14 15  2  0  0  0  0
 15 16  1  0  0  0  0
 16 17  1  0  0  0  0
 17 18  1  0  0  0  0
 18 19  1  0  0  0  0
 18 20  1  0  0  0  0
 20 21  1  0  0  0  0
 21 22  1  0  0  0  0
 21 26  1  0  0  0  0
 22 23  1  0  0  0  0
 23 24  1  0  0  0  0
 24 25  1  0  0  0  0
 24 27  1  0  0  0  0
 25 26  1  0  0  0  0
 27 28  2  0  0  0  0
 27 32  1  0  0  0  0
 28 29  1  0  0  0  0
 29 30  2  0  0  0  0
 30 31  1  0  0  0  0
 31 32  2  0  0  0  0
 32 33  1  0  0  0  0
 34 35  2  0  0  0  0
M  END
$$$$

 OpenBabel12191814062D

 35 38  0  0  0  0  0  0  0  0999 V2000
    2.8579   -1.6500    0.0000 C   0  0  0  0  0  0  0  0  0  0  0  0
    2.8579   -2.4750    0.0000 C   0  0  0  0  0  0  0  0  0  0  0  0
    3.5724   -2.8875    0.0000 C   0  0  0  0  0  0  0  0  0  0  0  0
    3.5724   -3.7125    0.0000 C   0  0  0  0  0  0  0  0  0  0  0  0
    2.8579   -4.1250    0.0000 C   0  0  0  0  0  0  0  0  0  0  0  0
    2.8579   -4.9500    0.0000 O   0  0  0  0  0  0  0  0  0  0  0  0
    3.5724   -5.3625    0.0000 C   0  0  0  0  0  0  0  0  0  0  0  0
    4.2868   -4.9500    0.0000 C   0  0  3  0  0  0  0  0  0  0  0  0
    5.0013   -5.3625    0.0000 O   0  0  0  0  0  0  0  0  0  0  0  0
    4.2868   -4.1250    0.0000 C   0  0  0  0  0  0  0  0  0  0  0  0
    5.0013   -3.7125    0.0000 N   0  0  0  0  0  0  0  0  0  0  0  0
    5.0013   -2.8875    0.0000 C   0  0  0  0  0  0  0  0  0  0  0  0
    5.7158   -2.4750    0.0000 C   0  0  0  0  0  0  0  0  0  0  0  0
    6.4302   -2.8875    0.0000 N   0  0  0  0  0  0  0  0  0  0  0  0
    6.4302   -3.7125    0.0000 C   0  0  0  0  0  0  0  0  0  0  0  0
    5.7158   -4.1250    0.0000 C   0  0  0  0  0  0  0  0  0  0  0  0
    7.1447   -2.4750    0.0000 C   0  0  0  0  0  0  0  0  0  0  0  0
    7.1447   -1.6500    0.0000 C   0  0  0  0  0  0  0  0  0  0  0  0
    7.8592   -1.2375    0.0000 C   0  0  0  0  0  0  0  0  0  0  0  0
    8.5737   -1.6500    0.0000 C   0  0  0  0  0  0  0  0  0  0  0  0
    8.5737   -2.4750    0.0000 C   0  0  0  0  0  0  0  0  0  0  0  0
    7.8592   -2.8875    0.0000 C   0  0  0  0  0  0  0  0  0  0  0  0
    7.8592   -3.7125    0.0000 C   0  0  0  0  0  0  0  0  0  0  0  0
    2.1434   -3.7125    0.0000 C   0  0  0  0  0  0  0  0  0  0  0  0
    2.1434   -2.8875    0.0000 C   0  0  0  0  0  0  0  0  0  0  0  0
    1.4289   -4.1250    0.0000 C   0  0  0  0  0  0  0  0  0  0  0  0
    1.4289   -4.9500    0.0000 O   0  0  0  0  0  0  0  0  0  0  0  0
    0.7145   -3.7125    0.0000 C   0  0  0  0  0  0  0  0  0  0  0  0
    0.0000   -4.1250    0.0000 C   0  0  0  0  0  0  0  0  0  0  0  0
   -0.7145   -3.7125    0.0000 C   0  0  0  0  0  0  0  0  0  0  0  0
   -1.4289   -4.1250    0.0000 C   0  0  0  0  0  0  0  0  0  0  0  0
   -2.1434   -3.7125    0.0000 C   0  0  0  0  0  0  0  0  0  0  0  0
   -2.1434   -2.8875    0.0000 C   0  0  0  0  0  0  0  0  0  0  0  0
   -1.4289   -2.4750    0.0000 C   0  0  0  0  0  0  0  0  0  0  0  0
   -0.7145   -2.8875    0.0000 C   0  0  0  0  0  0  0  0  0  0  0  0
  1  2  1  0  0  0  0
  2  3  2  0  0  0  0
  2 25  1  0  0  0  0
  3  4  1  0  0  0  0
  4  5  2  0  0  0  0
  5  6  1  0  0  0  0
  5 24  1  0  0  0  0
  6  7  1  0  0  0  0
  7  8  1  0  0  0  0
  8  9  1  0  0  0  0
  8 10  1  0  0  0  0
 10 11  1  0  0  0  0
 11 12  1  0  0  0  0
 11 16  1  0  0  0  0
 12 13  1  0  0  0  0
 13 14  1  0  0  0  0
 14 15  1  0  0  0  0
 14 17  1  0  0  0  0
 15 16  1  0  0  0  0
 17 18  2  0  0  0  0
 17 22  1  0  0  0  0
 18 19  1  0  0  0  0
 19 20  2  0  0  0  0
 20 21  1  0  0  0  0
 21 22  2  0  0  0  0
 22 23  1  0  0  0  0
 24 25  2  0  0  0  0
 24 26  1  0  0  0  0
 26 27  2  0  0  0  0
 26 28  1  0  0  0  0
 28 29  1  0  0  0  0
 29 30  1  0  0  0  0
 30 31  2  0  0  0  0
 30 35  1  0  0  0  0
 31 32  1  0  0  0  0
 32 33  2  0  0  0  0
 33 34  1  0  0  0  0
 34 35  2  0  0  0  0
M  END
$$$$

 OpenBabel12191814062D

 28 32  0  0  0  0  0  0  0  0999 V2000
    6.4895    1.8414    0.0000 C   0  0  0  0  0  0  0  0  0  0  0  0
    6.0770    1.1270    0.0000 C   0  0  3  0  0  0  0  0  0  0  0  0
    6.4895    0.4125    0.0000 C   0  0  0  0  0  0  0  0  0  0  0  0
    6.0770   -0.3020    0.0000 C   0  0  0  0  0  0  0  0  0  0  0  0
    5.2520   -0.3020    0.0000 C   0  0  3  0  0  0  0  0  0  0  0  0
    4.8395   -1.0164    0.0000 C   0  0  0  0  0  0  0  0  0  0  0  0
    4.0145   -1.0164    0.0000 O   0  0  0  0  0  0  0  0  0  0  0  0
    3.6020   -0.3020    0.0000 C   0  0  0  0  0  0  0  0  0  0  0  0
    4.0145    0.4125    0.0000 C   0  0  0  0  0  0  0  0  0  0  0  0
    4.8395    0.4125    0.0000 C   0  0  3  0  0  0  0  0  0  0  0  0
    5.2520    1.1270    0.0000 C   0  0  0  0  0  0  0  0  0  0  0  0
    3.6020    1.1270    0.0000 C   0  0  0  0  0  0  0  0  0  0  0  0
    4.0145    1.8414    0.0000 O   0  0  0  0  0  0  0  0  0  0  0  0
    2.7770    1.1270    0.0000 C   0  0  0  0  0  0  0  0  0  0  0  0
    2.3645    0.4125    0.0000 C   0  0  0  0  0  0  0  0  0  0  0  0
    1.5395    0.4125    0.0000 C   0  0  3  0  0  0  0  0  0  0  0  0
    1.1270   -0.3020    0.0000 C   0  0  0  0  0  0  0  0  0  0  0  0
    0.3020   -0.3020    0.0000 C   0  0  3  0  0  0  0  0  0  0  0  0
   -0.1105   -1.0164    0.0000 C   0  0  0  0  0  0  0  0  0  0  0  0
   -0.1105    0.4125    0.0000 C   0  0  0  0  0  0  0  0  0  0  0  0
    0.3020    1.1270    0.0000 C   0  0  0  0  0  0  0  0  0  0  0  0
    1.1270    1.1270    0.0000 C   0  0  3  0  0  0  0  0  0  0  0  0
    1.5395    1.8414    0.0000 C   0  0  0  0  0  0  0  0  0  0  0  0
    0.7642    2.1236    0.0000 C   0  0  0  0  0  0  0  0  0  0  0  0
    1.6827    2.6539    0.0000 C   0  0  0  0  0  0  0  0  0  0  0  0
    2.3645    1.8414    0.0000 O   0  0  0  0  0  0  0  0  0  0  0  0
    2.7770   -0.3020    0.0000 C   0  0  0  0  0  0  0  0  0  0  0  0
    2.3645   -1.0164    0.0000 O   0  0  0  0  0  0  0  0  0  0  0  0
  1  2  1  0  0  0  0
  2  3  1  0  0  0  0
  2 11  1  0  0  0  0
  3  4  1  0  0  0  0
  4  5  1  0  0  0  0
  5  6  1  0  0  0  0
  5 10  1  0  0  0  0
  6  7  1  0  0  0  0
  7  8  1  0  0  0  0
  8  9  2  0  0  0  0
  8 27  1  0  0  0  0
  9 10  1  0  0  0  0
  9 12  1  0  0  0  0
 10 11  1  0  0  0  0
 12 13  2  0  0  0  0
 12 14  1  0  0  0  0
 14 15  2  0  0  0  0
 14 26  1  0  0  0  0
 15 16  1  0  0  0  0
 15 27  1  0  0  0  0
 16 17  1  0  0  0  0
 16 22  1  0  0  0  0
 17 18  1  0  0  0  0
 18 19  1  0  0  0  0
 18 20  1  0  0  0  0
 20 21  1  0  0  0  0
 21 22  1  0  0  0  0
 22 23  1  0  0  0  0
 23 24  1  0  0  0  0
 23 25  1  0  0  0  0
 23 26  1  0  0  0  0
 27 28  2  0  0  0  0
M  END
$$$$

 OpenBabel12191814062D

 28 31  0  0  0  0  0  0  0  0999 V2000
   -3.5724   -2.8875    0.0000 C   0  0  0  0  0  0  0  0  0  0  0  0
   -3.5724   -3.7125    0.0000 C   0  0  0  0  0  0  0  0  0  0  0  0
   -2.8579   -4.1250    0.0000 C   0  0  0  0  0  0  0  0  0  0  0  0
   -2.8579   -4.9500    0.0000 C   0  0  0  0  0  0  0  0  0  0  0  0
   -3.5724   -5.3625    0.0000 C   0  0  0  0  0  0  0  0  0  0  0  0
   -4.2868   -4.9500    0.0000 C   0  0  0  0  0  0  0  0  0  0  0  0
   -5.0013   -5.3625    0.0000 C   0  0  0  0  0  0  0  0  0  0  0  0
   -5.0013   -6.1875    0.0000 N   0  0  0  0  0  0  0  0  0  0  0  0
   -5.7158   -6.6000    0.0000 N   0  0  0  0  0  0  0  0  0  0  0  0
   -5.7158   -7.4250    0.0000 C   0  0  0  0  0  0  0  0  0  0  0  0
   -6.4302   -7.8375    0.0000 C   0  0  0  0  0  0  0  0  0  0  0  0
   -7.1447   -7.4250    0.0000 N   0  0  0  0  0  0  0  0  0  0  0  0
   -7.1447   -6.6000    0.0000 C   0  0  0  0  0  0  0  0  0  0  0  0
   -6.4302   -6.1875    0.0000 C   0  0  0  0  0  0  0  0  0  0  0  0
   -7.8592   -7.8375    0.0000 C   0  0  0  0  0  0  0  0  0  0  0  0
   -8.5737   -7.4250    0.0000 C   0  0  0  0  0  0  0  0  0  0  0  0
   -9.2881   -7.8375    0.0000 C   0  0  0  0  0  0  0  0  0  0  0  0
  -10.0026   -7.4250    0.0000 C   0  0  0  0  0  0  0  0  0  0  0  0
  -10.0026   -6.6000    0.0000 C   0  0  0  0  0  0  0  0  0  0  0  0
   -9.2881   -6.1875    0.0000 C   0  0  0  0  0  0  0  0  0  0  0  0
   -8.5737   -6.6000    0.0000 C   0  0  0  0  0  0  0  0  0  0  0  0
   -7.8592   -8.6625    0.0000 C   0  0  0  0  0  0  0  0  0  0  0  0
   -7.1447   -9.0750    0.0000 C   0  0  0  0  0  0  0  0  0  0  0  0
   -7.1447   -9.9000    0.0000 C   0  0  0  0  0  0  0  0  0  0  0  0
   -7.8592  -10.3125    0.0000 C   0  0  0  0  0  0  0  0  0  0  0  0
   -8.5737   -9.9000    0.0000 C   0  0  0  0  0  0  0  0  0  0  0  0
   -8.5737   -9.0750    0.0000 C   0  0  0  0  0  0  0  0  0  0  0  0
   -4.2868   -4.1250    0.0000 N   0  0  0  0  0  0  0  0  0  0  0  0
  1  2  1  0  0  0  0
  2  3  2  0  0  0  0
  2 28  1  0  0  0  0
  3  4  1  0  0  0  0
  4  5  2  0  0  0  0
  5  6  1  0  0  0  0
  6  7  1  0  0  0  0
  6 28  2  0  0  0  0
  7  8  2  0  0  0  0
  8  9  1  0  0  0  0
  9 10  1  0  0  0  0
  9 14  1  0  0  0  0
 10 11  1  0  0  0  0
 11 12  1  0  0  0  0
 12 13  1  0  0  0  0
 12 15  1  0  0  0  0
 13 14  1  0  0  0  0
 15 16  1  0  0  0  0
 15 22  1  0  0  0  0
 16 17  2  0  0  0  0
 16 21  1  0  0  0  0
 17 18  1  0  0  0  0
 18 19  2  0  0  0  0
 19 20  1  0  0  0  0
 20 21  2  0  0  0  0
 22 23  2  0  0  0  0
 22 27  1  0  0  0  0
 23 24  1  0  0  0  0
 24 25  2  0  0  0  0
 25 26  1  0  0  0  0
 26 27  2  0  0  0  0
M  END
$$$$

 OpenBabel12191814062D

 39 42  0  0  0  0  0  0  0  0999 V2000
   -0.7145   -0.4125    0.0000 C   0  0  0  0  0  0  0  0  0  0  0  0
   -0.7145   -1.2375    0.0000 C   0  0  0  0  0  0  0  0  0  0  0  0
    0.0000   -1.6500    0.0000 C   0  0  0  0  0  0  0  0  0  0  0  0
    0.0000   -2.4750    0.0000 C   0  0  0  0  0  0  0  0  0  0  0  0
   -0.7145   -2.8875    0.0000 C   0  0  0  0  0  0  0  0  0  0  0  0
   -1.4289   -2.4750    0.0000 C   0  0  0  0  0  0  0  0  0  0  0  0
   -2.1434   -2.8875    0.0000 C   0  0  0  0  0  0  0  0  0  0  0  0
   -1.4289   -1.6500    0.0000 C   0  0  0  0  0  0  0  0  0  0  0  0
   -2.1434   -1.2375    0.0000 C   0  0  0  0  0  0  0  0  0  0  0  0
   -2.1434   -0.4125    0.0000 C   0  0  0  0  0  0  0  0  0  0  0  0
   -1.4289    0.0000    0.0000 N   0  0  0  0  0  0  0  0  0  0  0  0
   -1.4289    0.8250    0.0000 C   0  0  0  0  0  0  0  0  0  0  0  0
   -2.1434    1.2375    0.0000 C   0  0  0  0  0  0  0  0  0  0  0  0
   -2.1434    2.0625    0.0000 C   0  0  0  0  0  0  0  0  0  0  0  0
   -1.4289    2.4750    0.0000 N   0  0  0  0  0  0  0  0  0  0  0  0
   -0.7145    2.0625    0.0000 C   0  0  0  0  0  0  0  0  0  0  0  0
   -0.7145    1.2375    0.0000 C   0  0  0  0  0  0  0  0  0  0  0  0
   -1.4289    3.3000    0.0000 C   0  0  0  0  0  0  0  0  0  0  0  0
   -2.1434    3.7125    0.0000 N   0  0  0  0  0  0  0  0  0  0  0  0
   -2.1434    4.5375    0.0000 C   0  0  0  0  0  0  0  0  0  0  0  0
   -2.8579    4.9500    0.0000 N   0  0  0  0  0  0  0  0  0  0  0  0
   -3.5724    4.5375    0.0000 C   0  0  0  0  0  0  0  0  0  0  0  0
   -4.2868    4.9500    0.0000 C   0  0  0  0  0  0  0  0  0  0  0  0
   -4.2868    5.7750    0.0000 C   0  0  0  0  0  0  0  0  0  0  0  0
   -1.4289    4.9500    0.0000 N   0  0  0  0  0  0  0  0  0  0  0  0
   -0.7145    4.5375    0.0000 C   0  0  0  0  0  0  0  0  0  0  0  0
    0.0000    4.9500    0.0000 N   0  0  0  0  0  0  0  0  0  0  0  0
    0.7145    4.5375    0.0000 C   0  0  0  0  0  0  0  0  0  0  0  0
    1.4289    4.9500    0.0000 C   0  0  0  0  0  0  0  0  0  0  0  0
    2.1434    4.5375    0.0000 C   0  0  0  0  0  0  0  0  0  0  0  0
   -0.7145    3.7125    0.0000 N   0  0  0  0  0  0  0  0  0  0  0  0
   -2.8579   -1.6500    0.0000 C   0  0  0  0  0  0  0  0  0  0  0  0
   -2.8579   -2.4750    0.0000 C   0  0  0  0  0  0  0  0  0  0  0  0
   -2.5223   -3.2287    0.0000 C   0  0  0  0  0  0  0  0  0  0  0  0
   -3.5724   -2.8875    0.0000 C   0  0  0  0  0  0  0  0  0  0  0  0
   -4.2868   -2.4750    0.0000 C   0  0  0  0  0  0  0  0  0  0  0  0
   -4.2868   -1.6500    0.0000 C   0  0  0  0  0  0  0  0  0  0  0  0
   -3.5724   -1.2375    0.0000 C   0  0  0  0  0  0  0  0  0  0  0  0
   -3.5724   -0.4125    0.0000 C   0  0  0  0  0  0  0  0  0  0  0  0
  1  2  1  0  0  0  0
  2  3  2  0  0  0  0
  2  8  1  0  0  0  0
  3  4  1  0  0  0  0
  4  5  2  0  0  0  0
  5  6  1  0  0  0  0
  6  7  1  0  0  0  0
  6  8  2  0  0  0  0
  8  9  1  0  0  0  0
  9 10  1  0  0  0  0
  9 32  1  0  0  0  0
 10 11  1  0  0  0  0
 11 12  1  0  0  0  0
 12 13  1  0  0  0  0
 12 17  1  0  0  0  0
 13 14  1  0  0  0  0
 14 15  1  0  0  0  0
 15 16  1  0  0  0  0
 15 18  1  0  0  0  0
 16 17  1  0  0  0  0
 18 19  2  0  0  0  0
 18 31  1  0  0  0  0
 19 20  1  0  0  0  0
 20 21  1  0  0  0  0
 20 25  2  0  0  0  0
 21 22  1  0  0  0  0
 22 23  1  0  0  0  0
 23 24  2  0  0  0  0
 25 26  1  0  0  0  0
 26 27  1  0  0  0  0
 26 31  2  0  0  0  0
 27 28  1  0  0  0  0
 28 29  1  0  0  0  0
 29 30  2  0  0  0  0
 32 33  2  0  0  0  0
 32 38  1  0  0  0  0
 33 34  1  0  0  0  0
 33 35  1  0  0  0  0
 35 36  2  0  0  0  0
 36 37  1  0  0  0  0
 37 38  2  0  0  0  0
 38 39  1  0  0  0  0
M  END
$$$$

 OpenBabel12191814062D

 36 39  0  0  0  0  0  0  0  0999 V2000
   -4.2868   -4.9500    0.0000 C   0  0  0  0  0  0  0  0  0  0  0  0
   -5.0013   -5.3625    0.0000 C   0  0  0  0  0  0  0  0  0  0  0  0
   -5.0013   -6.1875    0.0000 C   0  0  0  0  0  0  0  0  0  0  0  0
   -5.7158   -6.6000    0.0000 C   0  0  0  0  0  0  0  0  0  0  0  0
   -6.4302   -6.1875    0.0000 C   0  0  0  0  0  0  0  0  0  0  0  0
   -6.4302   -5.3625    0.0000 C   0  0  0  0  0  0  0  0  0  0  0  0
   -7.1447   -4.9500    0.0000 C   0  0  0  0  0  0  0  0  0  0  0  0
   -5.7158   -4.9500    0.0000 C   0  0  0  0  0  0  0  0  0  0  0  0
   -5.7158   -4.1250    0.0000 N   0  0  0  0  0  0  0  0  0  0  0  0
   -5.0013   -3.7125    0.0000 C   0  0  0  0  0  0  0  0  0  0  0  0
   -4.2868   -4.1250    0.0000 O   0  0  0  0  0  0  0  0  0  0  0  0
   -5.0013   -2.8875    0.0000 C   0  0  0  0  0  0  0  0  0  0  0  0
   -4.2868   -2.4750    0.0000 N   0  0  0  0  0  0  0  0  0  0  0  0
   -4.2868   -1.6500    0.0000 C   0  0  0  0  0  0  0  0  0  0  0  0
   -3.5724   -1.2375    0.0000 C   0  0  0  0  0  0  0  0  0  0  0  0
   -2.8579   -1.6500    0.0000 N   0  0  0  0  0  0  0  0  0  0  0  0
   -2.1434   -1.2375    0.0000 C   0  0  0  0  0  0  0  0  0  0  0  0
   -1.4289   -1.6500    0.0000 C   0  0  0  0  0  0  0  0  0  0  0  0
   -0.7145   -1.2375    0.0000 O   0  0  0  0  0  0  0  0  0  0  0  0
    0.0000   -1.6500    0.0000 C   0  0  0  0  0  0  0  0  0  0  0  0
    0.0000   -2.4750    0.0000 O   0  0  0  0  0  0  0  0  0  0  0  0
    0.7145   -1.2375    0.0000 C   0  0  0  0  0  0  0  0  0  0  0  0
    1.4289   -1.6500    0.0000 C   0  0  0  0  0  0  0  0  0  0  0  0
    2.1434   -1.2375    0.0000 C   0  0  0  0  0  0  0  0  0  0  0  0
    2.8579   -1.6500    0.0000 C   0  0  0  0  0  0  0  0  0  0  0  0
    2.8579   -2.4750    0.0000 C   0  0  0  0  0  0  0  0  0  0  0  0
    2.1434   -2.8875    0.0000 C   0  0  0  0  0  0  0  0  0  0  0  0
    1.4289   -2.4750    0.0000 C   0  0  0  0  0  0  0  0  0  0  0  0
    0.7145   -0.4125    0.0000 C   0  0  0  0  0  0  0  0  0  0  0  0
    0.0000   -0.0000    0.0000 C   0  0  0  0  0  0  0  0  0  0  0  0
    0.0000    0.8250    0.0000 C   0  0  0  0  0  0  0  0  0  0  0  0
    0.7145    1.2375    0.0000 C   0  0  0  0  0  0  0  0  0  0  0  0
    1.4289    0.8250    0.0000 C   0  0  0  0  0  0  0  0  0  0  0  0
    1.4289    0.0000    0.0000 C   0  0  0  0  0  0  0  0  0  0  0  0
   -2.8579   -2.4750    0.0000 C   0  0  0  0  0  0  0  0  0  0  0  0
   -3.5724   -2.8875    0.0000 C   0  0  0  0  0  0  0  0  0  0  0  0
  1  2  1  0  0  0  0
  2  3  2  0  0  0  0
  2  8  1  0  0  0  0
  3  4  1  0  0  0  0
  4  5  2  0  0  0  0
  5  6  1  0  0  0  0
  6  7  1  0  0  0  0
  6  8  2  0  0  0  0
  8  9  1  0  0  0  0
  9 10  1  0  0  0  0
 10 11  2  0  0  0  0
 10 12  1  0  0  0  0
 12 13  1  0  0  0  0
 13 14  1  0  0  0  0
 13 36  1  0  0  0  0
 14 15  1  0  0  0  0
 15 16  1  0  0  0  0
 16 17  1  0  0  0  0
 16 35  1  0  0  0  0
 17 18  1  0  0  0  0
 18 19  1  0  0  0  0
 19 20  1  0  0  0  0
 20 21  2  0  0  0  0
 20 22  1  0  0  0  0
 22 23  1  0  0  0  0
 22 29  1  0  0  0  0
 23 24  2  0  0  0  0
 23 28  1  0  0  0  0
 24 25  1  0  0  0  0
 25 26  2  0  0  0  0
 26 27  1  0  0  0  0
 27 28  2  0  0  0  0
 29 30  2  0  0  0  0
 29 34  1  0  0  0  0
 30 31  1  0  0  0  0
 31 32  2  0  0  0  0
 32 33  1  0  0  0  0
 33 34  2  0  0  0  0
 35 36  1  0  0  0  0
M  END
$$$$

 OpenBabel12191814062D

 35 38  0  0  0  0  0  0  0  0999 V2000
   -7.8592   -5.3625    0.0000 C   0  0  0  0  0  0  0  0  0  0  0  0
   -7.8592   -6.1875    0.0000 C   0  0  0  0  0  0  0  0  0  0  0  0
   -7.1447   -6.6000    0.0000 C   0  0  0  0  0  0  0  0  0  0  0  0
   -7.1447   -7.4250    0.0000 C   0  0  0  0  0  0  0  0  0  0  0  0
   -7.8592   -7.8375    0.0000 C   0  0  0  0  0  0  0  0  0  0  0  0
   -8.5737   -7.4250    0.0000 C   0  0  0  0  0  0  0  0  0  0  0  0
   -9.2881   -7.8375    0.0000 N   0  0  0  0  0  0  0  0  0  0  0  0
   -9.2881   -8.6625    0.0000 C   0  0  0  0  0  0  0  0  0  0  0  0
  -10.0026   -9.0750    0.0000 C   0  0  0  0  0  0  0  0  0  0  0  0
  -10.7171   -8.6625    0.0000 N   0  0  0  0  0  0  0  0  0  0  0  0
  -11.4315   -9.0750    0.0000 C   0  0  0  0  0  0  0  0  0  0  0  0
  -11.4315   -9.9000    0.0000 C   0  0  3  0  0  0  0  0  0  0  0  0
  -10.7171  -10.3125    0.0000 O   0  0  0  0  0  0  0  0  0  0  0  0
  -12.1460  -10.3125    0.0000 C   0  0  0  0  0  0  0  0  0  0  0  0
  -12.1460  -11.1375    0.0000 O   0  0  0  0  0  0  0  0  0  0  0  0
  -12.8605  -11.5500    0.0000 C   0  0  0  0  0  0  0  0  0  0  0  0
  -12.8605  -12.3750    0.0000 C   0  0  0  0  0  0  0  0  0  0  0  0
  -13.5749  -12.7875    0.0000 C   0  0  0  0  0  0  0  0  0  0  0  0
  -14.2894  -12.3750    0.0000 C   0  0  0  0  0  0  0  0  0  0  0  0
  -14.2894  -11.5500    0.0000 C   0  0  0  0  0  0  0  0  0  0  0  0
  -13.5749  -11.1375    0.0000 C   0  0  0  0  0  0  0  0  0  0  0  0
  -15.0039  -12.7875    0.0000 C   0  0  0  0  0  0  0  0  0  0  0  0
  -15.0039  -13.6125    0.0000 O   0  0  0  0  0  0  0  0  0  0  0  0
  -15.7184  -12.3750    0.0000 C   0  0  0  0  0  0  0  0  0  0  0  0
  -16.4328  -12.7875    0.0000 C   0  0  0  0  0  0  0  0  0  0  0  0
  -16.4328  -13.6125    0.0000 C   0  0  0  0  0  0  0  0  0  0  0  0
  -15.7184  -14.0250    0.0000 C   0  0  0  0  0  0  0  0  0  0  0  0
  -15.7184  -14.8500    0.0000 C   0  0  0  0  0  0  0  0  0  0  0  0
  -16.4328  -15.2625    0.0000 C   0  0  0  0  0  0  0  0  0  0  0  0
  -17.1473  -14.8500    0.0000 C   0  0  0  0  0  0  0  0  0  0  0  0
  -17.1473  -14.0250    0.0000 C   0  0  0  0  0  0  0  0  0  0  0  0
  -10.7171   -7.8375    0.0000 C   0  0  0  0  0  0  0  0  0  0  0  0
  -10.0026   -7.4250    0.0000 C   0  0  0  0  0  0  0  0  0  0  0  0
   -8.5737   -6.6000    0.0000 C   0  0  0  0  0  0  0  0  0  0  0  0
   -9.2881   -6.1875    0.0000 C   0  0  0  0  0  0  0  0  0  0  0  0
  1  2  1  0  0  0  0
  2  3  2  0  0  0  0
  2 34  1  0  0  0  0
  3  4  1  0  0  0  0
  4  5  2  0  0  0  0
  5  6  1  0  0  0  0
  6  7  1  0  0  0  0
  6 34  2  0  0  0  0
  7  8  1  0  0  0  0
  7 33  1  0  0  0  0
  8  9  1  0  0  0  0
  9 10  1  0  0  0  0
 10 11  1  0  0  0  0
 10 32  1  0  0  0  0
 11 12  1  0  0  0  0
 12 13  1  0  0  0  0
 12 14  1  0  0  0  0
 14 15  1  0  0  0  0
 15 16  1  0  0  0  0
 16 17  2  0  0  0  0
 16 21  1  0  0  0  0
 17 18  1  0  0  0  0
 18 19  2  0  0  0  0
 19 20  1  0  0  0  0
 19 22  1  0  0  0  0
 20 21  2  0  0  0  0
 22 23  2  0  0  0  0
 22 24  1  0  0  0  0
 24 25  1  0  0  0  0
 25 26  1  0  0  0  0
 26 27  2  0  0  0  0
 26 31  1  0  0  0  0
 27 28  1  0  0  0  0
 28 29  2  0  0  0  0
 29 30  1  0  0  0  0
 30 31  2  0  0  0  0
 32 33  1  0  0  0  0
 34 35  1  0  0  0  0
M  END
$$$$

 OpenBabel12191814062D

 35 38  0  0  0  0  0  0  0  0999 V2000
   -3.5724   -7.8375    0.0000 C   0  0  0  0  0  0  0  0  0  0  0  0
   -3.5724   -8.6625    0.0000 C   0  0  0  0  0  0  0  0  0  0  0  0
   -2.8579   -9.0750    0.0000 C   0  0  0  0  0  0  0  0  0  0  0  0
   -2.8579   -9.9000    0.0000 C   0  0  0  0  0  0  0  0  0  0  0  0
   -3.5724  -10.3125    0.0000 C   0  0  0  0  0  0  0  0  0  0  0  0
   -4.2868   -9.9000    0.0000 C   0  0  0  0  0  0  0  0  0  0  0  0
   -5.0013  -10.3125    0.0000 N   0  0  0  0  0  0  0  0  0  0  0  0
   -5.0013  -11.1375    0.0000 C   0  0  0  0  0  0  0  0  0  0  0  0
   -5.7158  -11.5500    0.0000 C   0  0  0  0  0  0  0  0  0  0  0  0
   -6.4302  -11.1375    0.0000 N   0  0  0  0  0  0  0  0  0  0  0  0
   -7.1447  -11.5500    0.0000 C   0  0  0  0  0  0  0  0  0  0  0  0
   -7.8592  -11.1375    0.0000 C   0  0  3  0  0  0  0  0  0  0  0  0
   -7.8592  -10.3125    0.0000 O   0  0  0  0  0  0  0  0  0  0  0  0
   -8.5737  -11.5500    0.0000 C   0  0  0  0  0  0  0  0  0  0  0  0
   -9.2881  -11.1375    0.0000 O   0  0  0  0  0  0  0  0  0  0  0  0
  -10.0026  -11.5500    0.0000 C   0  0  0  0  0  0  0  0  0  0  0  0
  -10.0026  -12.3750    0.0000 C   0  0  0  0  0  0  0  0  0  0  0  0
  -10.7171  -12.7875    0.0000 C   0  0  0  0  0  0  0  0  0  0  0  0
  -11.4315  -12.3750    0.0000 C   0  0  0  0  0  0  0  0  0  0  0  0
  -11.4315  -11.5500    0.0000 C   0  0  0  0  0  0  0  0  0  0  0  0
  -10.7171  -11.1375    0.0000 C   0  0  0  0  0  0  0  0  0  0  0  0
  -12.1460  -11.1375    0.0000 C   0  0  0  0  0  0  0  0  0  0  0  0
  -12.8605  -11.5500    0.0000 O   0  0  0  0  0  0  0  0  0  0  0  0
  -12.1460  -10.3125    0.0000 C   0  0  0  0  0  0  0  0  0  0  0  0
  -12.8605   -9.9000    0.0000 C   0  0  0  0  0  0  0  0  0  0  0  0
  -13.5749  -10.3125    0.0000 C   0  0  0  0  0  0  0  0  0  0  0  0
  -13.5749  -11.1375    0.0000 C   0  0  0  0  0  0  0  0  0  0  0  0
  -14.2894  -11.5500    0.0000 C   0  0  0  0  0  0  0  0  0  0  0  0
  -15.0039  -11.1375    0.0000 C   0  0  0  0  0  0  0  0  0  0  0  0
  -15.0039  -10.3125    0.0000 C   0  0  0  0  0  0  0  0  0  0  0  0
  -14.2894   -9.9000    0.0000 C   0  0  0  0  0  0  0  0  0  0  0  0
   -6.4302  -10.3125    0.0000 C   0  0  0  0  0  0  0  0  0  0  0  0
   -5.7158   -9.9000    0.0000 C   0  0  0  0  0  0  0  0  0  0  0  0
   -4.2868   -9.0750    0.0000 C   0  0  0  0  0  0  0  0  0  0  0  0
   -5.0013   -8.6625    0.0000 C   0  0  0  0  0  0  0  0  0  0  0  0
  1  2  1  0  0  0  0
  2  3  2  0  0  0  0
  2 34  1  0  0  0  0
  3  4  1  0  0  0  0
  4  5  2  0  0  0  0
  5  6  1  0  0  0  0
  6  7  1  0  0  0  0
  6 34  2  0  0  0  0
  7  8  1  0  0  0  0
  7 33  1  0  0  0  0
  8  9  1  0  0  0  0
  9 10  1  0  0  0  0
 10 11  1  0  0  0  0
 10 32  1  0  0  0  0
 11 12  1  0  0  0  0
 12 13  1  0  0  0  0
 12 14  1  0  0  0  0
 14 15  1  0  0  0  0
 15 16  1  0  0  0  0
 16 17  2  0  0  0  0
 16 21  1  0  0  0  0
 17 18  1  0  0  0  0
 18 19  2  0  0  0  0
 19 20  1  0  0  0  0
 20 21  2  0  0  0  0
 20 22  1  0  0  0  0
 22 23  2  0  0  0  0
 22 24  1  0  0  0  0
 24 25  1  0  0  0  0
 25 26  1  0  0  0  0
 26 27  2  0  0  0  0
 26 31  1  0  0  0  0
 27 28  1  0  0  0  0
 28 29  2  0  0  0  0
 29 30  1  0  0  0  0
 30 31  2  0  0  0  0
 32 33  1  0  0  0  0
 34 35  1  0  0  0  0
M  END
$$$$

 OpenBabel12191814062D

 36 40  0  0  0  0  0  0  0  0999 V2000
    3.2789    8.6625    0.0000 C   0  0  0  0  0  0  0  0  0  0  0  0
    3.9934    8.2500    0.0000 C   0  0  0  0  0  0  0  0  0  0  0  0
    4.7079    8.6625    0.0000 C   0  0  0  0  0  0  0  0  0  0  0  0
    5.4223    8.2500    0.0000 C   0  0  0  0  0  0  0  0  0  0  0  0
    5.4223    7.4250    0.0000 C   0  0  0  0  0  0  0  0  0  0  0  0
    4.7079    7.0125    0.0000 C   0  0  0  0  0  0  0  0  0  0  0  0
    4.7079    6.1875    0.0000 N   0  0  0  0  0  0  0  0  0  0  0  0
    5.4223    5.7750    0.0000 C   0  0  0  0  0  0  0  0  0  0  0  0
    5.4223    4.9500    0.0000 C   0  0  0  0  0  0  0  0  0  0  0  0
    4.7079    4.5375    0.0000 N   0  0  0  0  0  0  0  0  0  0  0  0
    4.7079    3.7125    0.0000 C   0  0  0  0  0  0  0  0  0  0  0  0
    3.9934    3.3000    0.0000 C   0  0  3  0  0  0  0  0  0  0  0  0
    3.2789    3.7125    0.0000 O   0  0  0  0  0  0  0  0  0  0  0  0
    3.9934    2.4750    0.0000 C   0  0  0  0  0  0  0  0  0  0  0  0
    3.2789    2.0625    0.0000 O   0  0  0  0  0  0  0  0  0  0  0  0
    3.2789    1.2375    0.0000 C   0  0  0  0  0  0  0  0  0  0  0  0
    3.9934    0.8250    0.0000 C   0  0  0  0  0  0  0  0  0  0  0  0
    3.9934    0.0000    0.0000 C   0  0  0  0  0  0  0  0  0  0  0  0
    3.2789   -0.4125    0.0000 C   0  0  0  0  0  0  0  0  0  0  0  0
    2.5645    0.0000    0.0000 C   0  0  0  0  0  0  0  0  0  0  0  0
    1.7798   -0.2549    0.0000 C   0  0  0  0  0  0  0  0  0  0  0  0
    1.5249   -1.0396    0.0000 C   0  0  0  0  0  0  0  0  0  0  0  0
    1.2949    0.4125    0.0000 C   0  0  3  0  0  0  0  0  0  0  0  0
    1.7798    1.0799    0.0000 C   0  0  0  0  0  0  0  0  0  0  0  0
    1.5249    1.8646    0.0000 O   0  0  0  0  0  0  0  0  0  0  0  0
    2.5645    0.8250    0.0000 C   0  0  0  0  0  0  0  0  0  0  0  0
    0.4699    0.4125    0.0000 C   0  0  0  0  0  0  0  0  0  0  0  0
    0.0574   -0.3020    0.0000 C   0  0  0  0  0  0  0  0  0  0  0  0
   -0.7676   -0.3020    0.0000 C   0  0  0  0  0  0  0  0  0  0  0  0
   -1.1801    0.4125    0.0000 C   0  0  0  0  0  0  0  0  0  0  0  0
   -0.7676    1.1270    0.0000 C   0  0  0  0  0  0  0  0  0  0  0  0
    0.0574    1.1270    0.0000 C   0  0  0  0  0  0  0  0  0  0  0  0
    3.9934    4.9500    0.0000 C   0  0  0  0  0  0  0  0  0  0  0  0
    3.9934    5.7750    0.0000 C   0  0  0  0  0  0  0  0  0  0  0  0
    3.9934    7.4250    0.0000 C   0  0  0  0  0  0  0  0  0  0  0  0
    3.2789    7.0125    0.0000 C   0  0  0  0  0  0  0  0  0  0  0  0
  1  2  1  0  0  0  0
  2  3  2  0  0  0  0
  2 35  1  0  0  0  0
  3  4  1  0  0  0  0
  4  5  2  0  0  0  0
  5  6  1  0  0  0  0
  6  7  1  0  0  0  0
  6 35  2  0  0  0  0
  7  8  1  0  0  0  0
  7 34  1  0  0  0  0
  8  9  1  0  0  0  0
  9 10  1  0  0  0  0
 10 11  1  0  0  0  0
 10 33  1  0  0  0  0
 11 12  1  0  0  0  0
 12 13  1  0  0  0  0
 12 14  1  0  0  0  0
 14 15  1  0  0  0  0
 15 16  1  0  0  0  0
 16 17  2  0  0  0  0
 16 26  1  0  0  0  0
 17 18  1  0  0  0  0
 18 19  2  0  0  0  0
 19 20  1  0  0  0  0
 20 21  1  0  0  0  0
 20 26  2  0  0  0  0
 21 22  2  0  0  0  0
 21 23  1  0  0  0  0
 23 24  1  0  0  0  0
 23 27  1  0  0  0  0
 24 25  2  0  0  0  0
 24 26  1  0  0  0  0
 27 28  2  0  0  0  0
 27 32  1  0  0  0  0
 28 29  1  0  0  0  0
 29 30  2  0  0  0  0
 30 31  1  0  0  0  0
 31 32  2  0  0  0  0
 33 34  1  0  0  0  0
 35 36  1  0  0  0  0
M  END
$$$$

 OpenBabel12191814062D

 35 38  0  0  0  0  0  0  0  0999 V2000
    3.5724   -5.3625    0.0000 C   0  0  0  0  0  0  0  0  0  0  0  0
    3.5724   -6.1875    0.0000 C   0  0  0  0  0  0  0  0  0  0  0  0
    4.2868   -6.6000    0.0000 C   0  0  0  0  0  0  0  0  0  0  0  0
    4.2868   -7.4250    0.0000 C   0  0  0  0  0  0  0  0  0  0  0  0
    3.5724   -7.8375    0.0000 C   0  0  0  0  0  0  0  0  0  0  0  0
    2.8579   -7.4250    0.0000 C   0  0  0  0  0  0  0  0  0  0  0  0
    2.1434   -7.8375    0.0000 N   0  0  0  0  0  0  0  0  0  0  0  0
    2.1434   -8.6625    0.0000 C   0  0  0  0  0  0  0  0  0  0  0  0
    1.4289   -9.0750    0.0000 C   0  0  0  0  0  0  0  0  0  0  0  0
    0.7145   -8.6625    0.0000 N   0  0  0  0  0  0  0  0  0  0  0  0
   -0.0000   -9.0750    0.0000 C   0  0  0  0  0  0  0  0  0  0  0  0
   -0.7145   -8.6625    0.0000 C   0  0  3  0  0  0  0  0  0  0  0  0
   -0.7145   -7.8375    0.0000 O   0  0  0  0  0  0  0  0  0  0  0  0
   -1.4289   -9.0750    0.0000 C   0  0  0  0  0  0  0  0  0  0  0  0
   -2.1434   -8.6625    0.0000 O   0  0  0  0  0  0  0  0  0  0  0  0
   -2.8579   -9.0750    0.0000 C   0  0  0  0  0  0  0  0  0  0  0  0
   -2.8579   -9.9000    0.0000 C   0  0  0  0  0  0  0  0  0  0  0  0
   -3.5724  -10.3125    0.0000 C   0  0  0  0  0  0  0  0  0  0  0  0
   -4.2868   -9.9000    0.0000 C   0  0  0  0  0  0  0  0  0  0  0  0
   -4.2868   -9.0750    0.0000 C   0  0  0  0  0  0  0  0  0  0  0  0
   -3.5724   -8.6625    0.0000 C   0  0  0  0  0  0  0  0  0  0  0  0
   -3.5724   -7.8375    0.0000 C   0  0  0  0  0  0  0  0  0  0  0  0
   -4.2868   -7.4250    0.0000 O   0  0  0  0  0  0  0  0  0  0  0  0
   -2.8579   -7.4250    0.0000 C   0  0  0  0  0  0  0  0  0  0  0  0
   -2.8579   -6.6000    0.0000 C   0  0  0  0  0  0  0  0  0  0  0  0
   -3.5724   -6.1875    0.0000 C   0  0  0  0  0  0  0  0  0  0  0  0
   -4.2868   -6.6000    0.0000 C   0  0  0  0  0  0  0  0  0  0  0  0
   -5.0013   -6.1875    0.0000 C   0  0  0  0  0  0  0  0  0  0  0  0
   -5.0013   -5.3625    0.0000 C   0  0  0  0  0  0  0  0  0  0  0  0
   -4.2868   -4.9500    0.0000 C   0  0  0  0  0  0  0  0  0  0  0  0
   -3.5724   -5.3625    0.0000 C   0  0  0  0  0  0  0  0  0  0  0  0
    0.7145   -7.8375    0.0000 C   0  0  0  0  0  0  0  0  0  0  0  0
    1.4289   -7.4250    0.0000 C   0  0  0  0  0  0  0  0  0  0  0  0
    2.8579   -6.6000    0.0000 C   0  0  0  0  0  0  0  0  0  0  0  0
    2.1434   -6.1875    0.0000 C   0  0  0  0  0  0  0  0  0  0  0  0
  1  2  1  0  0  0  0
  2  3  2  0  0  0  0
  2 34  1  0  0  0  0
  3  4  1  0  0  0  0
  4  5  2  0  0  0  0
  5  6  1  0  0  0  0
  6  7  1  0  0  0  0
  6 34  2  0  0  0  0
  7  8  1  0  0  0  0
  7 33  1  0  0  0  0
  8  9  1  0  0  0  0
  9 10  1  0  0  0  0
 10 11  1  0  0  0  0
 10 32  1  0  0  0  0
 11 12  1  0  0  0  0
 12 13  1  0  0  0  0
 12 14  1  0  0  0  0
 14 15  1  0  0  0  0
 15 16  1  0  0  0  0
 16 17  2  0  0  0  0
 16 21  1  0  0  0  0
 17 18  1  0  0  0  0
 18 19  2  0  0  0  0
 19 20  1  0  0  0  0
 20 21  2  0  0  0  0
 21 22  1  0  0  0  0
 22 23  2  0  0  0  0
 22 24  1  0  0  0  0
 24 25  1  0  0  0  0
 25 26  1  0  0  0  0
 26 27  2  0  0  0  0
 26 31  1  0  0  0  0
 27 28  1  0  0  0  0
 28 29  2  0  0  0  0
 29 30  1  0  0  0  0
 30 31  2  0  0  0  0
 32 33  1  0  0  0  0
 34 35  1  0  0  0  0
M  END
$$$$

 OpenBabel12191814062D

 38 43  0  0  0  0  0  0  0  0999 V2000
   -0.0953   -3.7139    0.0000 C   0  0  0  0  0  0  0  0  0  0  0  0
   -0.6473   -3.1008    0.0000 C   0  0  0  0  0  0  0  0  0  0  0  0
   -1.4543   -3.2723    0.0000 C   0  0  0  0  0  0  0  0  0  0  0  0
   -2.0063   -2.6593    0.0000 C   0  0  0  0  0  0  0  0  0  0  0  0
   -1.7514   -1.8746    0.0000 C   0  0  0  0  0  0  0  0  0  0  0  0
   -0.9444   -1.7031    0.0000 C   0  0  0  0  0  0  0  0  0  0  0  0
   -0.3924   -2.3162    0.0000 C   0  0  0  0  0  0  0  0  0  0  0  0
    0.4146   -2.1447    0.0000 C   0  0  0  0  0  0  0  0  0  0  0  0
    0.6695   -1.3601    0.0000 N   0  0  0  0  0  0  0  0  0  0  0  0
    1.4765   -1.1885    0.0000 C   0  0  0  0  0  0  0  0  0  0  0  0
    1.7314   -0.4039    0.0000 N   0  0  0  0  0  0  0  0  0  0  0  0
    1.1794    0.2092    0.0000 C   0  0  0  0  0  0  0  0  0  0  0  0
    1.4343    0.9938    0.0000 C   0  0  0  0  0  0  0  0  0  0  0  0
    2.2413    1.1653    0.0000 N   0  0  0  0  0  0  0  0  0  0  0  0
    2.4963    1.9500    0.0000 C   0  0  0  0  0  0  0  0  0  0  0  0
    1.9442    2.5631    0.0000 C   0  0  0  0  0  0  0  0  0  0  0  0
    2.1992    3.3477    0.0000 C   0  0  0  0  0  0  0  0  0  0  0  0
    1.6471    3.9608    0.0000 C   0  0  0  0  0  0  0  0  0  0  0  0
    1.9021    4.7454    0.0000 C   0  0  0  0  0  0  0  0  0  0  0  0
    2.7090    4.9169    0.0000 C   0  0  0  0  0  0  0  0  0  0  0  0
    2.9640    5.7015    0.0000 F   0  0  0  0  0  0  0  0  0  0  0  0
    3.2611    4.3038    0.0000 C   0  0  0  0  0  0  0  0  0  0  0  0
    4.0680    4.4754    0.0000 F   0  0  0  0  0  0  0  0  0  0  0  0
    3.0061    3.5192    0.0000 C   0  0  0  0  0  0  0  0  0  0  0  0
    2.7933    0.5522    0.0000 C   0  0  0  0  0  0  0  0  0  0  0  0
    2.5384   -0.2324    0.0000 C   0  0  0  0  0  0  0  0  0  0  0  0
    2.0285   -1.8016    0.0000 C   0  0  0  0  0  0  0  0  0  0  0  0
    2.8535   -1.8016    0.0000 N   0  0  0  0  0  0  0  0  0  0  0  0
    3.4056   -1.1885    0.0000 C   0  0  0  0  0  0  0  0  0  0  0  0
    4.2125   -1.3601    0.0000 C   0  0  0  0  0  0  0  0  0  0  0  0
    4.4675   -2.1447    0.0000 C   0  0  0  0  0  0  0  0  0  0  0  0
    3.9154   -2.7578    0.0000 C   0  0  0  0  0  0  0  0  0  0  0  0
    3.1085   -2.5862    0.0000 C   0  0  0  0  0  0  0  0  0  0  0  0
    2.4410   -3.0712    0.0000 C   0  0  0  0  0  0  0  0  0  0  0  0
    2.4410   -3.8962    0.0000 C   0  0  0  0  0  0  0  0  0  0  0  0
    2.4410   -4.7212    0.0000 N   0  0  0  0  0  0  0  0  0  0  0  0
    1.7736   -2.5862    0.0000 C   0  0  0  0  0  0  0  0  0  0  0  0
    0.9666   -2.7578    0.0000 N   0  0  0  0  0  0  0  0  0  0  0  0
  1  2  1  0  0  0  0
  2  3  2  0  0  0  0
  2  7  1  0  0  0  0
  3  4  1  0  0  0  0
  4  5  2  0  0  0  0
  5  6  1  0  0  0  0
  6  7  2  0  0  0  0
  7  8  1  0  0  0  0
  8  9  2  0  0  0  0
  8 38  1  0  0  0  0
  9 10  1  0  0  0  0
 10 11  1  0  0  0  0
 10 27  2  0  0  0  0
 11 12  1  0  0  0  0
 11 26  1  0  0  0  0
 12 13  1  0  0  0  0
 13 14  1  0  0  0  0
 14 15  1  0  0  0  0
 14 25  1  0  0  0  0
 15 16  1  0  0  0  0
 16 17  1  0  0  0  0
 17 18  2  0  0  0  0
 17 24  1  0  0  0  0
 18 19  1  0  0  0  0
 19 20  2  0  0  0  0
 20 21  1  0  0  0  0
 20 22  1  0  0  0  0
 22 23  1  0  0  0  0
 22 24  2  0  0  0  0
 25 26  1  0  0  0  0
 27 28  1  0  0  0  0
 27 37  1  0  0  0  0
 28 29  1  0  0  0  0
 28 33  1  0  0  0  0
 29 30  1  0  0  0  0
 30 31  1  0  0  0  0
 31 32  1  0  0  0  0
 32 33  1  0  0  0  0
 33 34  2  0  0  0  0
 34 35  1  0  0  0  0
 34 37  1  0  0  0  0
 35 36  3  0  0  0  0
 37 38  2  0  0  0  0
M  END
$$$$

 OpenBabel12191814062D

 31 34  0  0  0  0  0  0  0  0999 V2000
   -5.7158    0.8250    0.0000 C   0  0  0  0  0  0  0  0  0  0  0  0
   -5.7158   -0.0000    0.0000 C   0  0  0  0  0  0  0  0  0  0  0  0
   -5.0013   -0.4125    0.0000 C   0  0  0  0  0  0  0  0  0  0  0  0
   -5.0013   -1.2375    0.0000 C   0  0  0  0  0  0  0  0  0  0  0  0
   -5.7158   -1.6500    0.0000 C   0  0  0  0  0  0  0  0  0  0  0  0
   -6.4302   -1.2375    0.0000 C   0  0  0  0  0  0  0  0  0  0  0  0
   -6.4302   -0.4125    0.0000 C   0  0  0  0  0  0  0  0  0  0  0  0
   -7.1447   -0.0000    0.0000 C   0  0  0  0  0  0  0  0  0  0  0  0
   -7.1447    0.8250    0.0000 N   0  0  0  0  0  0  0  0  0  0  0  0
   -7.8592    1.2375    0.0000 C   0  0  0  0  0  0  0  0  0  0  0  0
   -7.8592    2.0625    0.0000 C   0  0  0  0  0  0  0  0  0  0  0  0
   -7.1447    2.4750    0.0000 N   0  0  0  0  0  0  0  0  0  0  0  0
   -7.1447    3.3000    0.0000 C   0  0  0  0  0  0  0  0  0  0  0  0
   -7.8592    3.7125    0.0000 C   0  0  0  0  0  0  0  0  0  0  0  0
   -7.8592    4.5375    0.0000 O   0  0  0  0  0  0  0  0  0  0  0  0
   -8.5737    4.9500    0.0000 C   0  0  3  0  0  0  0  0  0  0  0  0
   -8.5737    5.7750    0.0000 C   0  0  0  0  0  0  0  0  0  0  0  0
   -9.2881    6.1875    0.0000 C   0  0  0  0  0  0  0  0  0  0  0  0
   -9.2881    7.0125    0.0000 C   0  0  0  0  0  0  0  0  0  0  0  0
   -8.5737    7.4250    0.0000 C   0  0  0  0  0  0  0  0  0  0  0  0
   -7.8592    7.0125    0.0000 C   0  0  0  0  0  0  0  0  0  0  0  0
   -7.8592    6.1875    0.0000 C   0  0  0  0  0  0  0  0  0  0  0  0
   -9.2881    4.5375    0.0000 C   0  0  0  0  0  0  0  0  0  0  0  0
   -9.2881    3.7125    0.0000 C   0  0  0  0  0  0  0  0  0  0  0  0
  -10.0026    3.3000    0.0000 C   0  0  0  0  0  0  0  0  0  0  0  0
  -10.7171    3.7125    0.0000 C   0  0  0  0  0  0  0  0  0  0  0  0
  -10.7171    4.5375    0.0000 C   0  0  0  0  0  0  0  0  0  0  0  0
  -10.0026    4.9500    0.0000 C   0  0  0  0  0  0  0  0  0  0  0  0
  -10.0026    5.7750    0.0000 Cl  0  0  0  0  0  0  0  0  0  0  0  0
   -6.4302    2.0625    0.0000 C   0  0  0  0  0  0  0  0  0  0  0  0
   -6.4302    1.2375    0.0000 C   0  0  0  0  0  0  0  0  0  0  0  0
  1  2  1  0  0  0  0
  2  3  2  0  0  0  0
  2  7  1  0  0  0  0
  3  4  1  0  0  0  0
  4  5  2  0  0  0  0
  5  6  1  0  0  0  0
  6  7  2  0  0  0  0
  7  8  1  0  0  0  0
  8  9  1  0  0  0  0
  9 10  1  0  0  0  0
  9 31  1  0  0  0  0
 10 11  1  0  0  0  0
 11 12  1  0  0  0  0
 12 13  1  0  0  0  0
 12 30  1  0  0  0  0
 13 14  1  0  0  0  0
 14 15  1  0  0  0  0
 15 16  1  0  0  0  0
 16 17  1  0  0  0  0
 16 23  1  0  0  0  0
 17 18  2  0  0  0  0
 17 22  1  0  0  0  0
 18 19  1  0  0  0  0
 19 20  2  0  0  0  0
 20 21  1  0  0  0  0
 21 22  2  0  0  0  0
 23 24  2  0  0  0  0
 23 28  1  0  0  0  0
 24 25  1  0  0  0  0
 25 26  2  0  0  0  0
 26 27  1  0  0  0  0
 27 28  2  0  0  0  0
 28 29  1  0  0  0  0
 30 31  1  0  0  0  0
M  END
$$$$

 OpenBabel12191814062D

 36 39  0  0  0  0  0  0  0  0999 V2000
    3.5724   -5.3625    0.0000 C   0  0  0  0  0  0  0  0  0  0  0  0
    3.5724   -6.1875    0.0000 C   0  0  0  0  0  0  0  0  0  0  0  0
    4.2868   -6.6000    0.0000 C   0  0  0  0  0  0  0  0  0  0  0  0
    4.2868   -7.4250    0.0000 C   0  0  0  0  0  0  0  0  0  0  0  0
    3.5724   -7.8375    0.0000 C   0  0  0  0  0  0  0  0  0  0  0  0
    2.8579   -7.4250    0.0000 C   0  0  0  0  0  0  0  0  0  0  0  0
    2.8579   -6.6000    0.0000 C   0  0  0  0  0  0  0  0  0  0  0  0
    2.1434   -6.1875    0.0000 N   0  0  0  0  0  0  0  0  0  0  0  0
    1.4289   -6.6000    0.0000 C   0  0  0  0  0  0  0  0  0  0  0  0
    0.7145   -6.1875    0.0000 C   0  0  0  0  0  0  0  0  0  0  0  0
    0.7145   -5.3625    0.0000 N   0  0  0  0  0  0  0  0  0  0  0  0
    0.0000   -4.9500    0.0000 C   0  0  0  0  0  0  0  0  0  0  0  0
    0.0000   -4.1250    0.0000 C   0  0  3  0  0  0  0  0  0  0  0  0
    0.7145   -3.7125    0.0000 O   0  0  0  0  0  0  0  0  0  0  0  0
   -0.7145   -3.7125    0.0000 C   0  0  0  0  0  0  0  0  0  0  0  0
   -0.7145   -2.8875    0.0000 O   0  0  0  0  0  0  0  0  0  0  0  0
   -1.4289   -2.4750    0.0000 C   0  0  0  0  0  0  0  0  0  0  0  0
   -2.1434   -2.8875    0.0000 C   0  0  0  0  0  0  0  0  0  0  0  0
   -2.8579   -2.4750    0.0000 C   0  0  0  0  0  0  0  0  0  0  0  0
   -3.5724   -2.8875    0.0000 Cl  0  0  0  0  0  0  0  0  0  0  0  0
   -2.8579   -1.6500    0.0000 C   0  0  0  0  0  0  0  0  0  0  0  0
   -3.5724   -1.2375    0.0000 Cl  0  0  0  0  0  0  0  0  0  0  0  0
   -2.1434   -1.2375    0.0000 C   0  0  0  0  0  0  0  0  0  0  0  0
   -1.4289   -1.6500    0.0000 C   0  0  0  0  0  0  0  0  0  0  0  0
   -0.7145   -1.2375    0.0000 C   0  0  0  0  0  0  0  0  0  0  0  0
   -0.7145   -0.4125    0.0000 O   0  0  0  0  0  0  0  0  0  0  0  0
    0.0000   -1.6500    0.0000 C   0  0  0  0  0  0  0  0  0  0  0  0
    0.7145   -1.2375    0.0000 C   0  0  0  0  0  0  0  0  0  0  0  0
    0.7145   -0.4125    0.0000 C   0  0  0  0  0  0  0  0  0  0  0  0
    0.0000    0.0000    0.0000 C   0  0  0  0  0  0  0  0  0  0  0  0
    0.0000    0.8250    0.0000 C   0  0  0  0  0  0  0  0  0  0  0  0
    0.7145    1.2375    0.0000 C   0  0  0  0  0  0  0  0  0  0  0  0
    1.4289    0.8250    0.0000 C   0  0  0  0  0  0  0  0  0  0  0  0
    1.4289    0.0000    0.0000 C   0  0  0  0  0  0  0  0  0  0  0  0
    1.4289   -4.9500    0.0000 C   0  0  0  0  0  0  0  0  0  0  0  0
    2.1434   -5.3625    0.0000 C   0  0  0  0  0  0  0  0  0  0  0  0
  1  2  1  0  0  0  0
  2  3  2  0  0  0  0
  2  7  1  0  0  0  0
  3  4  1  0  0  0  0
  4  5  2  0  0  0  0
  5  6  1  0  0  0  0
  6  7  2  0  0  0  0
  7  8  1  0  0  0  0
  8  9  1  0  0  0  0
  8 36  1  0  0  0  0
  9 10  1  0  0  0  0
 10 11  1  0  0  0  0
 11 12  1  0  0  0  0
 11 35  1  0  0  0  0
 12 13  1  0  0  0  0
 13 14  1  0  0  0  0
 13 15  1  0  0  0  0
 15 16  1  0  0  0  0
 16 17  1  0  0  0  0
 17 18  2  0  0  0  0
 17 24  1  0  0  0  0
 18 19  1  0  0  0  0
 19 20  1  0  0  0  0
 19 21  2  0  0  0  0
 21 22  1  0  0  0  0
 21 23  1  0  0  0  0
 23 24  2  0  0  0  0
 24 25  1  0  0  0  0
 25 26  2  0  0  0  0
 25 27  1  0  0  0  0
 27 28  1  0  0  0  0
 28 29  1  0  0  0  0
 29 30  2  0  0  0  0
 29 34  1  0  0  0  0
 30 31  1  0  0  0  0
 31 32  2  0  0  0  0
 32 33  1  0  0  0  0
 33 34  2  0  0  0  0
 35 36  1  0  0  0  0
M  END
$$$$

 OpenBabel12191814062D

 35 38  0  0  0  0  0  0  0  0999 V2000
    3.5724   -5.3625    0.0000 C   0  0  0  0  0  0  0  0  0  0  0  0
    3.5724   -6.1875    0.0000 C   0  0  0  0  0  0  0  0  0  0  0  0
    4.2868   -6.6000    0.0000 C   0  0  0  0  0  0  0  0  0  0  0  0
    4.2868   -7.4250    0.0000 C   0  0  0  0  0  0  0  0  0  0  0  0
    3.5724   -7.8375    0.0000 C   0  0  0  0  0  0  0  0  0  0  0  0
    2.8579   -7.4250    0.0000 C   0  0  0  0  0  0  0  0  0  0  0  0
    2.8579   -6.6000    0.0000 C   0  0  0  0  0  0  0  0  0  0  0  0
    2.1434   -6.1875    0.0000 N   0  0  0  0  0  0  0  0  0  0  0  0
    1.4289   -6.6000    0.0000 C   0  0  0  0  0  0  0  0  0  0  0  0
    0.7145   -6.1875    0.0000 C   0  0  0  0  0  0  0  0  0  0  0  0
    0.7145   -5.3625    0.0000 N   0  0  0  0  0  0  0  0  0  0  0  0
    0.0000   -4.9500    0.0000 C   0  0  0  0  0  0  0  0  0  0  0  0
    0.0000   -4.1250    0.0000 C   0  0  3  0  0  0  0  0  0  0  0  0
    0.7145   -3.7125    0.0000 O   0  0  0  0  0  0  0  0  0  0  0  0
   -0.7145   -3.7125    0.0000 C   0  0  0  0  0  0  0  0  0  0  0  0
   -0.7145   -2.8875    0.0000 O   0  0  0  0  0  0  0  0  0  0  0  0
   -1.4289   -2.4750    0.0000 C   0  0  0  0  0  0  0  0  0  0  0  0
   -2.1434   -2.8875    0.0000 C   0  0  0  0  0  0  0  0  0  0  0  0
   -2.8579   -2.4750    0.0000 C   0  0  0  0  0  0  0  0  0  0  0  0
   -2.8579   -1.6500    0.0000 C   0  0  0  0  0  0  0  0  0  0  0  0
   -3.5724   -1.2375    0.0000 Cl  0  0  0  0  0  0  0  0  0  0  0  0
   -2.1434   -1.2375    0.0000 C   0  0  0  0  0  0  0  0  0  0  0  0
   -1.4289   -1.6500    0.0000 C   0  0  0  0  0  0  0  0  0  0  0  0
   -0.7145   -1.2375    0.0000 C   0  0  0  0  0  0  0  0  0  0  0  0
   -0.7145   -0.4125    0.0000 O   0  0  0  0  0  0  0  0  0  0  0  0
    0.0000   -1.6500    0.0000 C   0  0  0  0  0  0  0  0  0  0  0  0
    0.7145   -1.2375    0.0000 C   0  0  0  0  0  0  0  0  0  0  0  0
    0.7145   -0.4125    0.0000 C   0  0  0  0  0  0  0  0  0  0  0  0
    0.0000    0.0000    0.0000 C   0  0  0  0  0  0  0  0  0  0  0  0
    0.0000    0.8250    0.0000 C   0  0  0  0  0  0  0  0  0  0  0  0
    0.7145    1.2375    0.0000 C   0  0  0  0  0  0  0  0  0  0  0  0
    1.4289    0.8250    0.0000 C   0  0  0  0  0  0  0  0  0  0  0  0
    1.4289    0.0000    0.0000 C   0  0  0  0  0  0  0  0  0  0  0  0
    1.4289   -4.9500    0.0000 C   0  0  0  0  0  0  0  0  0  0  0  0
    2.1434   -5.3625    0.0000 C   0  0  0  0  0  0  0  0  0  0  0  0
  1  2  1  0  0  0  0
  2  3  2  0  0  0  0
  2  7  1  0  0  0  0
  3  4  1  0  0  0  0
  4  5  2  0  0  0  0
  5  6  1  0  0  0  0
  6  7  2  0  0  0  0
  7  8  1  0  0  0  0
  8  9  1  0  0  0  0
  8 35  1  0  0  0  0
  9 10  1  0  0  0  0
 10 11  1  0  0  0  0
 11 12  1  0  0  0  0
 11 34  1  0  0  0  0
 12 13  1  0  0  0  0
 13 14  1  0  0  0  0
 13 15  1  0  0  0  0
 15 16  1  0  0  0  0
 16 17  1  0  0  0  0
 17 18  2  0  0  0  0
 17 23  1  0  0  0  0
 18 19  1  0  0  0  0
 19 20  2  0  0  0  0
 20 21  1  0  0  0  0
 20 22  1  0  0  0  0
 22 23  2  0  0  0  0
 23 24  1  0  0  0  0
 24 25  2  0  0  0  0
 24 26  1  0  0  0  0
 26 27  1  0  0  0  0
 27 28  1  0  0  0  0
 28 29  2  0  0  0  0
 28 33  1  0  0  0  0
 29 30  1  0  0  0  0
 30 31  2  0  0  0  0
 31 32  1  0  0  0  0
 32 33  2  0  0  0  0
 34 35  1  0  0  0  0
M  END
$$$$

 OpenBabel12191814062D

 34 37  0  0  0  0  0  0  0  0999 V2000
   -3.5724   -7.8375    0.0000 C   0  0  0  0  0  0  0  0  0  0  0  0
   -3.5724   -8.6625    0.0000 C   0  0  0  0  0  0  0  0  0  0  0  0
   -2.8579   -9.0750    0.0000 C   0  0  0  0  0  0  0  0  0  0  0  0
   -2.8579   -9.9000    0.0000 C   0  0  0  0  0  0  0  0  0  0  0  0
   -3.5724  -10.3125    0.0000 C   0  0  0  0  0  0  0  0  0  0  0  0
   -4.2868   -9.9000    0.0000 C   0  0  0  0  0  0  0  0  0  0  0  0
   -4.2868   -9.0750    0.0000 C   0  0  0  0  0  0  0  0  0  0  0  0
   -5.0013   -8.6625    0.0000 N   0  0  0  0  0  0  0  0  0  0  0  0
   -5.7158   -9.0750    0.0000 C   0  0  0  0  0  0  0  0  0  0  0  0
   -6.4302   -8.6625    0.0000 C   0  0  0  0  0  0  0  0  0  0  0  0
   -6.4302   -7.8375    0.0000 N   0  0  0  0  0  0  0  0  0  0  0  0
   -7.1447   -7.4250    0.0000 C   0  0  0  0  0  0  0  0  0  0  0  0
   -7.1447   -6.6000    0.0000 C   0  0  3  0  0  0  0  0  0  0  0  0
   -6.4302   -6.1875    0.0000 O   0  0  0  0  0  0  0  0  0  0  0  0
   -7.8592   -6.1875    0.0000 C   0  0  0  0  0  0  0  0  0  0  0  0
   -7.8592   -5.3625    0.0000 O   0  0  0  0  0  0  0  0  0  0  0  0
   -8.5737   -4.9500    0.0000 C   0  0  0  0  0  0  0  0  0  0  0  0
   -9.2881   -5.3625    0.0000 C   0  0  0  0  0  0  0  0  0  0  0  0
  -10.0026   -4.9500    0.0000 C   0  0  0  0  0  0  0  0  0  0  0  0
  -10.0026   -4.1250    0.0000 C   0  0  0  0  0  0  0  0  0  0  0  0
   -9.2881   -3.7125    0.0000 C   0  0  0  0  0  0  0  0  0  0  0  0
   -8.5737   -4.1250    0.0000 C   0  0  0  0  0  0  0  0  0  0  0  0
   -9.2881   -2.8875    0.0000 C   0  0  0  0  0  0  0  0  0  0  0  0
  -10.0026   -2.4750    0.0000 O   0  0  0  0  0  0  0  0  0  0  0  0
   -8.5737   -2.4750    0.0000 C   0  0  0  0  0  0  0  0  0  0  0  0
   -8.5737   -1.6500    0.0000 C   0  0  0  0  0  0  0  0  0  0  0  0
   -9.2881   -1.2375    0.0000 C   0  0  0  0  0  0  0  0  0  0  0  0
  -10.0026   -1.6500    0.0000 C   0  0  0  0  0  0  0  0  0  0  0  0
  -10.7171   -1.2375    0.0000 C   0  0  0  0  0  0  0  0  0  0  0  0
  -10.7171   -0.4125    0.0000 C   0  0  0  0  0  0  0  0  0  0  0  0
  -10.0026   -0.0000    0.0000 C   0  0  0  0  0  0  0  0  0  0  0  0
   -9.2881   -0.4125    0.0000 C   0  0  0  0  0  0  0  0  0  0  0  0
   -5.7158   -7.4250    0.0000 C   0  0  0  0  0  0  0  0  0  0  0  0
   -5.0013   -7.8375    0.0000 C   0  0  0  0  0  0  0  0  0  0  0  0
  1  2  1  0  0  0  0
  2  3  2  0  0  0  0
  2  7  1  0  0  0  0
  3  4  1  0  0  0  0
  4  5  2  0  0  0  0
  5  6  1  0  0  0  0
  6  7  2  0  0  0  0
  7  8  1  0  0  0  0
  8  9  1  0  0  0  0
  8 34  1  0  0  0  0
  9 10  1  0  0  0  0
 10 11  1  0  0  0  0
 11 12  1  0  0  0  0
 11 33  1  0  0  0  0
 12 13  1  0  0  0  0
 13 14  1  0  0  0  0
 13 15  1  0  0  0  0
 15 16  1  0  0  0  0
 16 17  1  0  0  0  0
 17 18  2  0  0  0  0
 17 22  1  0  0  0  0
 18 19  1  0  0  0  0
 19 20  2  0  0  0  0
 20 21  1  0  0  0  0
 21 22  2  0  0  0  0
 21 23  1  0  0  0  0
 23 24  2  0  0  0  0
 23 25  1  0  0  0  0
 25 26  1  0  0  0  0
 26 27  1  0  0  0  0
 27 28  2  0  0  0  0
 27 32  1  0  0  0  0
 28 29  1  0  0  0  0
 29 30  2  0  0  0  0
 30 31  1  0  0  0  0
 31 32  2  0  0  0  0
 33 34  1  0  0  0  0
M  END
$$$$

 OpenBabel12191814062D

 35 38  0  0  0  0  0  0  0  0999 V2000
    3.5724   -5.3625    0.0000 C   0  0  0  0  0  0  0  0  0  0  0  0
    3.5724   -6.1875    0.0000 C   0  0  0  0  0  0  0  0  0  0  0  0
    4.2868   -6.6000    0.0000 C   0  0  0  0  0  0  0  0  0  0  0  0
    4.2868   -7.4250    0.0000 C   0  0  0  0  0  0  0  0  0  0  0  0
    3.5724   -7.8375    0.0000 C   0  0  0  0  0  0  0  0  0  0  0  0
    2.8579   -7.4250    0.0000 C   0  0  0  0  0  0  0  0  0  0  0  0
    2.8579   -6.6000    0.0000 C   0  0  0  0  0  0  0  0  0  0  0  0
    2.1434   -6.1875    0.0000 N   0  0  0  0  0  0  0  0  0  0  0  0
    1.4289   -6.6000    0.0000 C   0  0  0  0  0  0  0  0  0  0  0  0
    0.7145   -6.1875    0.0000 C   0  0  0  0  0  0  0  0  0  0  0  0
    0.7145   -5.3625    0.0000 N   0  0  0  0  0  0  0  0  0  0  0  0
    0.0000   -4.9500    0.0000 C   0  0  0  0  0  0  0  0  0  0  0  0
    0.0000   -4.1250    0.0000 C   0  0  3  0  0  0  0  0  0  0  0  0
    0.7145   -3.7125    0.0000 O   0  0  0  0  0  0  0  0  0  0  0  0
   -0.7145   -3.7125    0.0000 C   0  0  0  0  0  0  0  0  0  0  0  0
   -0.7145   -2.8875    0.0000 O   0  0  0  0  0  0  0  0  0  0  0  0
   -1.4289   -2.4750    0.0000 C   0  0  0  0  0  0  0  0  0  0  0  0
   -2.1434   -2.8875    0.0000 C   0  0  0  0  0  0  0  0  0  0  0  0
   -2.8579   -2.4750    0.0000 C   0  0  0  0  0  0  0  0  0  0  0  0
   -2.8579   -1.6500    0.0000 C   0  0  0  0  0  0  0  0  0  0  0  0
   -2.1434   -1.2375    0.0000 C   0  0  0  0  0  0  0  0  0  0  0  0
   -1.4289   -1.6500    0.0000 C   0  0  0  0  0  0  0  0  0  0  0  0
   -0.7145   -1.2375    0.0000 C   0  0  0  0  0  0  0  0  0  0  0  0
   -0.7145   -0.4125    0.0000 O   0  0  0  0  0  0  0  0  0  0  0  0
    0.0000   -1.6500    0.0000 C   0  0  0  0  0  0  0  0  0  0  0  0
    0.7145   -1.2375    0.0000 C   0  0  0  0  0  0  0  0  0  0  0  0
    0.7145   -0.4125    0.0000 C   0  0  0  0  0  0  0  0  0  0  0  0
    0.0000    0.0000    0.0000 C   0  0  0  0  0  0  0  0  0  0  0  0
    0.0000    0.8250    0.0000 C   0  0  0  0  0  0  0  0  0  0  0  0
    0.7145    1.2375    0.0000 C   0  0  0  0  0  0  0  0  0  0  0  0
    0.7145    2.0625    0.0000 Cl  0  0  0  0  0  0  0  0  0  0  0  0
    1.4289    0.8250    0.0000 C   0  0  0  0  0  0  0  0  0  0  0  0
    1.4289    0.0000    0.0000 C   0  0  0  0  0  0  0  0  0  0  0  0
    1.4289   -4.9500    0.0000 C   0  0  0  0  0  0  0  0  0  0  0  0
    2.1434   -5.3625    0.0000 C   0  0  0  0  0  0  0  0  0  0  0  0
  1  2  1  0  0  0  0
  2  3  2  0  0  0  0
  2  7  1  0  0  0  0
  3  4  1  0  0  0  0
  4  5  2  0  0  0  0
  5  6  1  0  0  0  0
  6  7  2  0  0  0  0
  7  8  1  0  0  0  0
  8  9  1  0  0  0  0
  8 35  1  0  0  0  0
  9 10  1  0  0  0  0
 10 11  1  0  0  0  0
 11 12  1  0  0  0  0
 11 34  1  0  0  0  0
 12 13  1  0  0  0  0
 13 14  1  0  0  0  0
 13 15  1  0  0  0  0
 15 16  1  0  0  0  0
 16 17  1  0  0  0  0
 17 18  2  0  0  0  0
 17 22  1  0  0  0  0
 18 19  1  0  0  0  0
 19 20  2  0  0  0  0
 20 21  1  0  0  0  0
 21 22  2  0  0  0  0
 22 23  1  0  0  0  0
 23 24  2  0  0  0  0
 23 25  1  0  0  0  0
 25 26  1  0  0  0  0
 26 27  1  0  0  0  0
 27 28  2  0  0  0  0
 27 33  1  0  0  0  0
 28 29  1  0  0  0  0
 29 30  2  0  0  0  0
 30 31  1  0  0  0  0
 30 32  1  0  0  0  0
 32 33  2  0  0  0  0
 34 35  1  0  0  0  0
M  END
$$$$

 OpenBabel12191814062D

 34 37  0  0  0  0  0  0  0  0999 V2000
    3.5724   -5.3625    0.0000 C   0  0  0  0  0  0  0  0  0  0  0  0
    3.5724   -6.1875    0.0000 C   0  0  0  0  0  0  0  0  0  0  0  0
    4.2868   -6.6000    0.0000 C   0  0  0  0  0  0  0  0  0  0  0  0
    4.2868   -7.4250    0.0000 C   0  0  0  0  0  0  0  0  0  0  0  0
    3.5724   -7.8375    0.0000 C   0  0  0  0  0  0  0  0  0  0  0  0
    2.8579   -7.4250    0.0000 C   0  0  0  0  0  0  0  0  0  0  0  0
    2.8579   -6.6000    0.0000 C   0  0  0  0  0  0  0  0  0  0  0  0
    2.1434   -6.1875    0.0000 N   0  0  0  0  0  0  0  0  0  0  0  0
    1.4289   -6.6000    0.0000 C   0  0  0  0  0  0  0  0  0  0  0  0
    0.7145   -6.1875    0.0000 C   0  0  0  0  0  0  0  0  0  0  0  0
    0.7145   -5.3625    0.0000 N   0  0  0  0  0  0  0  0  0  0  0  0
    0.0000   -4.9500    0.0000 C   0  0  0  0  0  0  0  0  0  0  0  0
    0.0000   -4.1250    0.0000 C   0  0  3  0  0  0  0  0  0  0  0  0
    0.7145   -3.7125    0.0000 O   0  0  0  0  0  0  0  0  0  0  0  0
   -0.7145   -3.7125    0.0000 C   0  0  0  0  0  0  0  0  0  0  0  0
   -0.7145   -2.8875    0.0000 O   0  0  0  0  0  0  0  0  0  0  0  0
   -1.4289   -2.4750    0.0000 C   0  0  0  0  0  0  0  0  0  0  0  0
   -2.1434   -2.8875    0.0000 C   0  0  0  0  0  0  0  0  0  0  0  0
   -2.8579   -2.4750    0.0000 C   0  0  0  0  0  0  0  0  0  0  0  0
   -2.8579   -1.6500    0.0000 C   0  0  0  0  0  0  0  0  0  0  0  0
   -2.1434   -1.2375    0.0000 C   0  0  0  0  0  0  0  0  0  0  0  0
   -1.4289   -1.6500    0.0000 C   0  0  0  0  0  0  0  0  0  0  0  0
   -0.7145   -1.2375    0.0000 C   0  0  0  0  0  0  0  0  0  0  0  0
   -0.7145   -0.4125    0.0000 O   0  0  0  0  0  0  0  0  0  0  0  0
    0.0000   -1.6500    0.0000 C   0  0  0  0  0  0  0  0  0  0  0  0
    0.7145   -1.2375    0.0000 C   0  0  0  0  0  0  0  0  0  0  0  0
    0.7145   -0.4125    0.0000 C   0  0  0  0  0  0  0  0  0  0  0  0
    0.0000    0.0000    0.0000 C   0  0  0  0  0  0  0  0  0  0  0  0
    0.0000    0.8250    0.0000 C   0  0  0  0  0  0  0  0  0  0  0  0
    0.7145    1.2375    0.0000 C   0  0  0  0  0  0  0  0  0  0  0  0
    1.4289    0.8250    0.0000 C   0  0  0  0  0  0  0  0  0  0  0  0
    1.4289    0.0000    0.0000 C   0  0  0  0  0  0  0  0  0  0  0  0
    1.4289   -4.9500    0.0000 C   0  0  0  0  0  0  0  0  0  0  0  0
    2.1434   -5.3625    0.0000 C   0  0  0  0  0  0  0  0  0  0  0  0
  1  2  1  0  0  0  0
  2  3  2  0  0  0  0
  2  7  1  0  0  0  0
  3  4  1  0  0  0  0
  4  5  2  0  0  0  0
  5  6  1  0  0  0  0
  6  7  2  0  0  0  0
  7  8  1  0  0  0  0
  8  9  1  0  0  0  0
  8 34  1  0  0  0  0
  9 10  1  0  0  0  0
 10 11  1  0  0  0  0
 11 12  1  0  0  0  0
 11 33  1  0  0  0  0
 12 13  1  0  0  0  0
 13 14  1  0  0  0  0
 13 15  1  0  0  0  0
 15 16  1  0  0  0  0
 16 17  1  0  0  0  0
 17 18  2  0  0  0  0
 17 22  1  0  0  0  0
 18 19  1  0  0  0  0
 19 20  2  0  0  0  0
 20 21  1  0  0  0  0
 21 22  2  0  0  0  0
 22 23  1  0  0  0  0
 23 24  2  0  0  0  0
 23 25  1  0  0  0  0
 25 26  1  0  0  0  0
 26 27  1  0  0  0  0
 27 28  2  0  0  0  0
 27 32  1  0  0  0  0
 28 29  1  0  0  0  0
 29 30  2  0  0  0  0
 30 31  1  0  0  0  0
 31 32  2  0  0  0  0
 33 34  1  0  0  0  0
M  END
$$$$

 OpenBabel12191814062D

 24 27  0  0  0  0  0  0  0  0999 V2000
   -1.4289   -4.1250    0.0000 C   0  0  0  0  0  0  0  0  0  0  0  0
   -2.1434   -3.7125    0.0000 C   0  0  0  0  0  0  0  0  0  0  0  0
   -2.8579   -4.1250    0.0000 C   0  0  0  0  0  0  0  0  0  0  0  0
   -3.5724   -3.7125    0.0000 C   0  0  0  0  0  0  0  0  0  0  0  0
   -3.5724   -2.8875    0.0000 C   0  0  0  0  0  0  0  0  0  0  0  0
   -2.8579   -2.4750    0.0000 C   0  0  0  0  0  0  0  0  0  0  0  0
   -2.1434   -2.8875    0.0000 C   0  0  0  0  0  0  0  0  0  0  0  0
   -1.4289   -2.4750    0.0000 N   0  0  0  0  0  0  0  0  0  0  0  0
   -1.4289   -1.6500    0.0000 C   0  0  0  0  0  0  0  0  0  0  0  0
   -0.7145   -1.2375    0.0000 C   0  0  0  0  0  0  0  0  0  0  0  0
    0.0000   -1.6500    0.0000 N   0  0  0  0  0  0  0  0  0  0  0  0
    0.0000   -2.4750    0.0000 C   0  0  0  0  0  0  0  0  0  0  0  0
   -0.7145   -2.8875    0.0000 C   0  0  0  0  0  0  0  0  0  0  0  0
    0.7145   -1.2375    0.0000 C   0  0  3  0  0  0  0  0  0  0  0  0
    0.7145   -0.4125    0.0000 C   0  0  0  0  0  0  0  0  0  0  0  0
    1.4289    0.0000    0.0000 C   0  0  0  0  0  0  0  0  0  0  0  0
    2.1434   -0.4125    0.0000 C   0  0  0  0  0  0  0  0  0  0  0  0
    2.8579    0.0000    0.0000 C   0  0  0  0  0  0  0  0  0  0  0  0
    3.5724   -0.4125    0.0000 C   0  0  0  0  0  0  0  0  0  0  0  0
    4.2868   -0.0000    0.0000 O   0  0  0  0  0  0  0  0  0  0  0  0
    3.5724   -1.2375    0.0000 C   0  0  0  0  0  0  0  0  0  0  0  0
    2.8579   -1.6500    0.0000 C   0  0  0  0  0  0  0  0  0  0  0  0
    2.1434   -1.2375    0.0000 C   0  0  0  0  0  0  0  0  0  0  0  0
    1.4289   -1.6500    0.0000 C   0  0  0  0  0  0  0  0  0  0  0  0
  1  2  1  0  0  0  0
  2  3  2  0  0  0  0
  2  7  1  0  0  0  0
  3  4  1  0  0  0  0
  4  5  2  0  0  0  0
  5  6  1  0  0  0  0
  6  7  2  0  0  0  0
  7  8  1  0  0  0  0
  8  9  1  0  0  0  0
  8 13  1  0  0  0  0
  9 10  1  0  0  0  0
 10 11  1  0  0  0  0
 11 12  1  0  0  0  0
 11 14  1  0  0  0  0
 12 13  1  0  0  0  0
 14 15  1  0  0  0  0
 14 24  1  0  0  0  0
 15 16  1  0  0  0  0
 16 17  1  0  0  0  0
 17 18  2  0  0  0  0
 17 23  1  0  0  0  0
 18 19  1  0  0  0  0
 19 20  1  0  0  0  0
 19 21  2  0  0  0  0
 21 22  1  0  0  0  0
 22 23  2  0  0  0  0
 23 24  1  0  0  0  0
M  END
$$$$

 OpenBabel12191814062D

 23 25  0  0  0  0  0  0  0  0999 V2000
   -2.8579   -2.4750    0.0000 C   0  0  0  0  0  0  0  0  0  0  0  0
   -2.8579   -1.6500    0.0000 C   0  0  0  0  0  0  0  0  0  0  0  0
   -3.5724   -1.2375    0.0000 C   0  0  0  0  0  0  0  0  0  0  0  0
   -3.5724   -0.4125    0.0000 C   0  0  0  0  0  0  0  0  0  0  0  0
   -2.8579    0.0000    0.0000 C   0  0  0  0  0  0  0  0  0  0  0  0
   -2.1434   -0.4125    0.0000 C   0  0  0  0  0  0  0  0  0  0  0  0
   -2.1434   -1.2375    0.0000 C   0  0  0  0  0  0  0  0  0  0  0  0
   -1.4289   -1.6500    0.0000 N   0  0  0  0  0  0  0  0  0  0  0  0
   -0.7145   -1.2375    0.0000 C   0  0  0  0  0  0  0  0  0  0  0  0
    0.0000   -1.6500    0.0000 C   0  0  0  0  0  0  0  0  0  0  0  0
    0.0000   -2.4750    0.0000 N   0  0  0  0  0  0  0  0  0  0  0  0
    0.7145   -2.8875    0.0000 C   0  0  0  0  0  0  0  0  0  0  0  0
    1.4289   -2.4750    0.0000 C   0  0  0  0  0  0  0  0  0  0  0  0
    2.1434   -2.8875    0.0000 C   0  0  0  0  0  0  0  0  0  0  0  0
    2.8579   -2.4750    0.0000 O   0  0  0  0  0  0  0  0  0  0  0  0
    3.5724   -2.8875    0.0000 C   0  0  0  0  0  0  0  0  0  0  0  0
    4.2868   -2.4750    0.0000 C   0  0  0  0  0  0  0  0  0  0  0  0
    5.0013   -2.8875    0.0000 C   0  0  0  0  0  0  0  0  0  0  0  0
    5.0013   -3.7125    0.0000 C   0  0  0  0  0  0  0  0  0  0  0  0
    4.2868   -4.1250    0.0000 C   0  0  0  0  0  0  0  0  0  0  0  0
    3.5724   -3.7125    0.0000 N   0  0  0  0  0  0  0  0  0  0  0  0
   -0.7145   -2.8875    0.0000 C   0  0  0  0  0  0  0  0  0  0  0  0
   -1.4289   -2.4750    0.0000 C   0  0  0  0  0  0  0  0  0  0  0  0
  1  2  1  0  0  0  0
  2  3  2  0  0  0  0
  2  7  1  0  0  0  0
  3  4  1  0  0  0  0
  4  5  2  0  0  0  0
  5  6  1  0  0  0  0
  6  7  2  0  0  0  0
  7  8  1  0  0  0  0
  8  9  1  0  0  0  0
  8 23  1  0  0  0  0
  9 10  1  0  0  0  0
 10 11  1  0  0  0  0
 11 12  1  0  0  0  0
 11 22  1  0  0  0  0
 12 13  1  0  0  0  0
 13 14  1  0  0  0  0
 14 15  1  0  0  0  0
 15 16  1  0  0  0  0
 16 17  2  0  0  0  0
 16 21  1  0  0  0  0
 17 18  1  0  0  0  0
 18 19  2  0  0  0  0
 19 20  1  0  0  0  0
 20 21  2  0  0  0  0
 22 23  1  0  0  0  0
M  END
$$$$

 OpenBabel12191814062D

 41 45  0  0  0  0  0  0  0  0999 V2000
   -2.1434   -1.2375    0.0000 C   0  0  0  0  0  0  0  0  0  0  0  0
   -1.4289   -1.6500    0.0000 C   0  0  3  0  0  0  0  0  0  0  0  0
   -0.7145   -1.2375    0.0000 C   0  0  0  0  0  0  0  0  0  0  0  0
    0.0000   -1.6500    0.0000 N   0  0  0  0  0  0  0  0  0  0  0  0
    0.0000   -2.4750    0.0000 C   0  0  0  0  0  0  0  0  0  0  0  0
   -0.7145   -2.8875    0.0000 C   0  0  3  0  0  0  0  0  0  0  0  0
   -0.7145   -3.7125    0.0000 C   0  0  0  0  0  0  0  0  0  0  0  0
   -1.4289   -2.4750    0.0000 O   0  0  0  0  0  0  0  0  0  0  0  0
    0.7145   -1.2375    0.0000 C   0  0  0  0  0  0  0  0  0  0  0  0
    0.7145   -0.4125    0.0000 N   0  0  0  0  0  0  0  0  0  0  0  0
    1.4289    0.0000    0.0000 C   0  0  0  0  0  0  0  0  0  0  0  0
    1.4289    0.8250    0.0000 N   0  0  0  0  0  0  0  0  0  0  0  0
    2.1434    1.2375    0.0000 C   0  0  0  0  0  0  0  0  0  0  0  0
    2.8579    0.8250    0.0000 C   0  0  0  0  0  0  0  0  0  0  0  0
    3.5724    1.2375    0.0000 O   0  0  0  0  0  0  0  0  0  0  0  0
    0.7145    1.2375    0.0000 C   0  0  0  0  0  0  0  0  0  0  0  0
    0.7145    2.0625    0.0000 C   0  0  0  0  0  0  0  0  0  0  0  0
    1.5395    2.0625    0.0000 C   0  0  0  0  0  0  0  0  0  0  0  0
   -0.1105    2.0625    0.0000 C   0  0  0  0  0  0  0  0  0  0  0  0
    0.7145    2.8875    0.0000 O   0  0  0  0  0  0  0  0  0  0  0  0
    2.1434   -0.4125    0.0000 C   0  0  0  0  0  0  0  0  0  0  0  0
    2.8579    0.0000    0.0000 N   0  0  0  0  0  0  0  0  0  0  0  0
    3.5724   -0.4125    0.0000 C   0  0  0  0  0  0  0  0  0  0  0  0
    4.2868   -0.0000    0.0000 C   0  0  0  0  0  0  0  0  0  0  0  0
    4.2868    0.8250    0.0000 C   0  0  0  0  0  0  0  0  0  0  0  0
    5.0013    1.2375    0.0000 C   0  0  0  0  0  0  0  0  0  0  0  0
    5.7158    0.8250    0.0000 C   0  0  0  0  0  0  0  0  0  0  0  0
    5.7158   -0.0000    0.0000 C   0  0  0  0  0  0  0  0  0  0  0  0
    5.0013   -0.4125    0.0000 C   0  0  0  0  0  0  0  0  0  0  0  0
    3.5724   -1.2375    0.0000 C   0  0  0  0  0  0  0  0  0  0  0  0
    2.8579   -1.6500    0.0000 N   0  0  0  0  0  0  0  0  0  0  0  0
    2.1434   -1.2375    0.0000 C   0  0  0  0  0  0  0  0  0  0  0  0
    1.4289   -1.6500    0.0000 N   0  0  0  0  0  0  0  0  0  0  0  0
    4.2868   -1.6500    0.0000 N   0  0  0  0  0  0  0  0  0  0  0  0
    5.0013   -1.2375    0.0000 C   0  0  0  0  0  0  0  0  0  0  0  0
    5.7158   -1.6500    0.0000 C   0  0  3  0  0  0  0  0  0  0  0  0
    6.4302   -1.2375    0.0000 C   0  0  0  0  0  0  0  0  0  0  0  0
    5.7158   -2.4750    0.0000 O   0  0  0  0  0  0  0  0  0  0  0  0
    5.0013   -2.8875    0.0000 C   0  0  3  0  0  0  0  0  0  0  0  0
    5.0013   -3.7125    0.0000 C   0  0  0  0  0  0  0  0  0  0  0  0
    4.2868   -2.4750    0.0000 C   0  0  0  0  0  0  0  0  0  0  0  0
  1  2  1  0  0  0  0
  2  3  1  0  0  0  0
  2  8  1  0  0  0  0
  3  4  1  0  0  0  0
  4  5  1  0  0  0  0
  4  9  1  0  0  0  0
  5  6  1  0  0  0  0
  6  7  1  0  0  0  0
  6  8  1  0  0  0  0
  9 10  2  0  0  0  0
  9 33  1  0  0  0  0
 10 11  1  0  0  0  0
 11 12  1  0  0  0  0
 11 21  2  0  0  0  0
 12 13  1  0  0  0  0
 12 16  1  0  0  0  0
 13 14  1  0  0  0  0
 14 15  1  0  0  0  0
 16 17  1  0  0  0  0
 17 18  1  0  0  0  0
 17 19  1  0  0  0  0
 17 20  1  0  0  0  0
 21 22  1  0  0  0  0
 21 32  1  0  0  0  0
 22 23  2  0  0  0  0
 23 24  1  0  0  0  0
 23 30  1  0  0  0  0
 24 25  2  0  0  0  0
 24 29  1  0  0  0  0
 25 26  1  0  0  0  0
 26 27  2  0  0  0  0
 27 28  1  0  0  0  0
 28 29  2  0  0  0  0
 30 31  2  0  0  0  0
 30 34  1  0  0  0  0
 31 32  1  0  0  0  0
 32 33  2  0  0  0  0
 34 35  1  0  0  0  0
 34 41  1  0  0  0  0
 35 36  1  0  0  0  0
 36 37  1  0  0  0  0
 36 38  1  0  0  0  0
 38 39  1  0  0  0  0
 39 40  1  0  0  0  0
 39 41  1  0  0  0  0
M  END
$$$$

 OpenBabel12191814062D

 30 34  0  0  0  0  0  0  0  0999 V2000
    3.8974   -1.0396    0.0000 C   0  0  0  0  0  0  0  0  0  0  0  0
    3.6425   -0.2549    0.0000 C   0  0  3  0  0  0  0  0  0  0  0  0
    4.1274    0.4125    0.0000 N   0  0  0  0  0  0  0  0  0  0  0  0
    4.9524    0.4125    0.0000 C   0  0  0  0  0  0  0  0  0  0  0  0
    5.3649   -0.3020    0.0000 C   0  0  0  0  0  0  0  0  0  0  0  0
    6.1899   -0.3020    0.0000 C   0  0  0  0  0  0  0  0  0  0  0  0
    6.6024   -1.0164    0.0000 C   0  0  0  0  0  0  0  0  0  0  0  0
    6.1899   -1.7309    0.0000 C   0  0  0  0  0  0  0  0  0  0  0  0
    5.3649   -1.7309    0.0000 C   0  0  0  0  0  0  0  0  0  0  0  0
    4.9524   -1.0164    0.0000 C   0  0  0  0  0  0  0  0  0  0  0  0
    3.6425    1.0799    0.0000 C   0  0  3  0  0  0  0  0  0  0  0  0
    2.8579    0.8250    0.0000 N   0  0  0  0  0  0  0  0  0  0  0  0
    2.8579    0.0000    0.0000 C   0  0  0  0  0  0  0  0  0  0  0  0
    2.1434   -0.4125    0.0000 N   0  0  0  0  0  0  0  0  0  0  0  0
    1.4289   -0.0000    0.0000 C   0  0  0  0  0  0  0  0  0  0  0  0
    0.7145   -0.4125    0.0000 C   0  0  0  0  0  0  0  0  0  0  0  0
   -0.0000    0.0000    0.0000 C   0  0  0  0  0  0  0  0  0  0  0  0
    0.0000    0.8250    0.0000 C   0  0  0  0  0  0  0  0  0  0  0  0
    0.7145    1.2375    0.0000 C   0  0  0  0  0  0  0  0  0  0  0  0
    1.4289    0.8250    0.0000 C   0  0  0  0  0  0  0  0  0  0  0  0
    2.1434    1.2375    0.0000 C   0  0  0  0  0  0  0  0  0  0  0  0
    2.1434    2.0625    0.0000 O   0  0  0  0  0  0  0  0  0  0  0  0
    3.8974    1.8646    0.0000 C   0  0  0  0  0  0  0  0  0  0  0  0
    3.3454    2.4777    0.0000 C   0  0  0  0  0  0  0  0  0  0  0  0
    3.6004    3.2623    0.0000 C   0  0  0  0  0  0  0  0  0  0  0  0
    4.4073    3.4338    0.0000 C   0  0  0  0  0  0  0  0  0  0  0  0
    4.6623    4.2184    0.0000 O   0  0  0  0  0  0  0  0  0  0  0  0
    4.9594    2.8207    0.0000 C   0  0  0  0  0  0  0  0  0  0  0  0
    5.7663    2.9922    0.0000 O   0  0  0  0  0  0  0  0  0  0  0  0
    4.7044    2.0361    0.0000 C   0  0  0  0  0  0  0  0  0  0  0  0
  1  2  1  0  0  0  0
  2  3  1  0  0  0  0
  2 13  1  0  0  0  0
  3  4  1  0  0  0  0
  3 11  1  0  0  0  0
  4  5  1  0  0  0  0
  5  6  2  0  0  0  0
  5 10  1  0  0  0  0
  6  7  1  0  0  0  0
  7  8  2  0  0  0  0
  8  9  1  0  0  0  0
  9 10  2  0  0  0  0
 11 12  1  0  0  0  0
 11 23  1  0  0  0  0
 12 13  1  0  0  0  0
 12 21  1  0  0  0  0
 13 14  2  0  0  0  0
 14 15  1  0  0  0  0
 15 16  2  0  0  0  0
 15 20  1  0  0  0  0
 16 17  1  0  0  0  0
 17 18  2  0  0  0  0
 18 19  1  0  0  0  0
 19 20  2  0  0  0  0
 20 21  1  0  0  0  0
 21 22  2  0  0  0  0
 23 24  2  0  0  0  0
 23 30  1  0  0  0  0
 24 25  1  0  0  0  0
 25 26  2  0  0  0  0
 26 27  1  0  0  0  0
 26 28  1  0  0  0  0
 28 29  1  0  0  0  0
 28 30  2  0  0  0  0
M  END
$$$$

 OpenBabel12191814062D

 35 40  0  0  0  0  0  0  0  0999 V2000
    4.7673   -2.3673    0.0000 C   0  0  0  0  0  0  0  0  0  0  0  0
    4.3878   -1.6348    0.0000 C   0  0  3  0  0  0  0  0  0  0  0  0
    4.8324   -0.9399    0.0000 N   0  0  0  0  0  0  0  0  0  0  0  0
    4.4528   -0.2074    0.0000 C   0  0  0  0  0  0  0  0  0  0  0  0
    4.8974    0.4876    0.0000 N   0  0  0  0  0  0  0  0  0  0  0  0
    5.7215    0.4500    0.0000 C   0  0  0  0  0  0  0  0  0  0  0  0
    6.1661    1.1450    0.0000 C   0  0  0  0  0  0  0  0  0  0  0  0
    6.9903    1.1075    0.0000 C   0  0  0  0  0  0  0  0  0  0  0  0
    7.3698    0.3750    0.0000 C   0  0  0  0  0  0  0  0  0  0  0  0
    6.9252   -0.3200    0.0000 C   0  0  0  0  0  0  0  0  0  0  0  0
    6.1011   -0.2825    0.0000 C   0  0  0  0  0  0  0  0  0  0  0  0
    5.6565   -0.9774    0.0000 C   0  0  0  0  0  0  0  0  0  0  0  0
    6.0361   -1.7099    0.0000 O   0  0  0  0  0  0  0  0  0  0  0  0
    3.6287   -0.1698    0.0000 C   0  0  3  0  0  0  0  0  0  0  0  0
    3.1051    0.4678    0.0000 C   0  0  0  0  0  0  0  0  0  0  0  0
    2.3369    0.1669    0.0000 C   0  0  3  0  0  0  0  0  0  0  0  0
    2.3857   -0.6567    0.0000 C   0  0  3  0  0  0  0  0  0  0  0  0
    3.1841   -0.8648    0.0000 N   0  0  0  0  0  0  0  0  0  0  0  0
    3.5636   -1.5973    0.0000 C   0  0  0  0  0  0  0  0  0  0  0  0
    3.1190   -2.2922    0.0000 O   0  0  0  0  0  0  0  0  0  0  0  0
    1.6176   -0.9576    0.0000 N   0  0  0  0  0  0  0  0  0  0  0  0
    1.4095   -1.7559    0.0000 C   0  0  0  0  0  0  0  0  0  0  0  0
    0.6141   -1.9749    0.0000 C   0  0  0  0  0  0  0  0  0  0  0  0
    1.9968   -2.3353    0.0000 O   0  0  0  0  0  0  0  0  0  0  0  0
    1.0940   -0.3200    0.0000 C   0  0  0  0  0  0  0  0  0  0  0  0
    0.2699   -0.2825    0.0000 C   0  0  0  0  0  0  0  0  0  0  0  0
   -0.1097    0.4500    0.0000 C   0  0  0  0  0  0  0  0  0  0  0  0
    0.3349    1.1450    0.0000 C   0  0  0  0  0  0  0  0  0  0  0  0
    1.1591    1.1075    0.0000 C   0  0  0  0  0  0  0  0  0  0  0  0
    1.5386    0.3750    0.0000 C   0  0  0  0  0  0  0  0  0  0  0  0
    2.2881    0.9904    0.0000 C   0  0  0  0  0  0  0  0  0  0  0  0
    1.4646    0.9416    0.0000 C   0  0  0  0  0  0  0  0  0  0  0  0
    3.1117    1.0392    0.0000 C   0  0  0  0  0  0  0  0  0  0  0  0
    2.2393    1.8140    0.0000 C   0  0  0  0  0  0  0  0  0  0  0  0
    2.9282    2.2680    0.0000 C   0  0  0  0  0  0  0  0  0  0  0  0
  1  2  1  0  0  0  0
  2  3  1  0  0  0  0
  2 19  1  0  0  0  0
  3  4  1  0  0  0  0
  3 12  1  0  0  0  0
  4  5  2  0  0  0  0
  4 14  1  0  0  0  0
  5  6  1  0  0  0  0
  6  7  2  0  0  0  0
  6 11  1  0  0  0  0
  7  8  1  0  0  0  0
  8  9  2  0  0  0  0
  9 10  1  0  0  0  0
 10 11  2  0  0  0  0
 11 12  1  0  0  0  0
 12 13  2  0  0  0  0
 14 15  1  0  0  0  0
 14 18  1  0  0  0  0
 15 16  1  0  0  0  0
 16 17  1  0  0  0  0
 16 30  1  0  0  0  0
 16 31  1  0  0  0  0
 17 18  1  0  0  0  0
 17 21  1  0  0  0  0
 18 19  1  0  0  0  0
 19 20  2  0  0  0  0
 21 22  1  0  0  0  0
 21 25  1  0  0  0  0
 22 23  1  0  0  0  0
 22 24  2  0  0  0  0
 25 26  2  0  0  0  0
 25 30  1  0  0  0  0
 26 27  1  0  0  0  0
 27 28  2  0  0  0  0
 28 29  1  0  0  0  0
 29 30  2  0  0  0  0
 31 32  1  0  0  0  0
 31 33  1  0  0  0  0
 31 34  1  0  0  0  0
 34 35  2  0  0  0  0
M  END
$$$$

 OpenBabel12191814062D

 34 38  0  0  0  0  0  0  0  0999 V2000
    0.1616   -3.0841    0.0000 C   0  0  0  0  0  0  0  0  0  0  0  0
    0.6465   -2.4167    0.0000 C   0  0  3  0  0  0  0  0  0  0  0  0
    0.3915   -1.6320    0.0000 N   0  0  0  0  0  0  0  0  0  0  0  0
    1.0590   -1.1471    0.0000 C   0  0  0  0  0  0  0  0  0  0  0  0
    1.7264   -1.6320    0.0000 C   0  0  0  0  0  0  0  0  0  0  0  0
    2.5110   -1.3771    0.0000 O   0  0  0  0  0  0  0  0  0  0  0  0
    1.4715   -2.4167    0.0000 N   0  0  0  0  0  0  0  0  0  0  0  0
    1.9564   -3.0841    0.0000 C   0  0  0  0  0  0  0  0  0  0  0  0
    1.6208   -3.8378    0.0000 C   0  0  0  0  0  0  0  0  0  0  0  0
    2.1058   -4.5052    0.0000 C   0  0  0  0  0  0  0  0  0  0  0  0
    1.7702   -5.2589    0.0000 N   0  0  0  0  0  0  0  0  0  0  0  0
    2.2551   -5.9263    0.0000 C   0  0  0  0  0  0  0  0  0  0  0  0
    1.9196   -6.6800    0.0000 C   0  0  0  0  0  0  0  0  0  0  0  0
    1.0991   -6.7662    0.0000 C   0  0  3  0  0  0  0  0  0  0  0  0
    0.6142   -6.0988    0.0000 C   0  0  0  0  0  0  0  0  0  0  0  0
    0.9497   -5.3451    0.0000 C   0  0  0  0  0  0  0  0  0  0  0  0
    0.7635   -7.5199    0.0000 C   0  0  0  0  0  0  0  0  0  0  0  0
    1.2485   -8.1874    0.0000 C   0  0  0  0  0  0  0  0  0  0  0  0
    0.9129   -8.9410    0.0000 C   0  0  0  0  0  0  0  0  0  0  0  0
    0.0924   -9.0273    0.0000 C   0  0  0  0  0  0  0  0  0  0  0  0
   -0.3925   -8.3598    0.0000 C   0  0  0  0  0  0  0  0  0  0  0  0
   -0.0569   -7.6062    0.0000 C   0  0  0  0  0  0  0  0  0  0  0  0
    0.4517   -0.5887    0.0000 C   0  0  0  0  0  0  0  0  0  0  0  0
   -0.3355   -0.8354    0.0000 C   0  0  0  0  0  0  0  0  0  0  0  0
   -0.9428   -0.2770    0.0000 C   0  0  0  0  0  0  0  0  0  0  0  0
   -0.7629    0.5281    0.0000 C   0  0  0  0  0  0  0  0  0  0  0  0
    0.0244    0.7749    0.0000 C   0  0  0  0  0  0  0  0  0  0  0  0
    0.6317    0.2164    0.0000 C   0  0  0  0  0  0  0  0  0  0  0  0
    1.4640   -0.4284    0.0000 C   0  0  0  0  0  0  0  0  0  0  0  0
    1.0440    0.2817    0.0000 C   0  0  0  0  0  0  0  0  0  0  0  0
    1.4490    1.0005    0.0000 C   0  0  0  0  0  0  0  0  0  0  0  0
    2.2740    1.0091    0.0000 C   0  0  0  0  0  0  0  0  0  0  0  0
    2.6939    0.2990    0.0000 C   0  0  0  0  0  0  0  0  0  0  0  0
    2.2889   -0.4197    0.0000 C   0  0  0  0  0  0  0  0  0  0  0  0
  1  2  1  0  0  0  0
  2  3  1  0  0  0  0
  2  7  1  0  0  0  0
  3  4  1  0  0  0  0
  4  5  1  0  0  0  0
  4 23  1  0  0  0  0
  4 29  1  0  0  0  0
  5  6  2  0  0  0  0
  5  7  1  0  0  0  0
  7  8  1  0  0  0  0
  8  9  1  0  0  0  0
  9 10  1  0  0  0  0
 10 11  1  0  0  0  0
 11 12  1  0  0  0  0
 11 16  1  0  0  0  0
 12 13  1  0  0  0  0
 13 14  1  0  0  0  0
 14 15  1  0  0  0  0
 14 17  1  0  0  0  0
 15 16  1  0  0  0  0
 17 18  2  0  0  0  0
 17 22  1  0  0  0  0
 18 19  1  0  0  0  0
 19 20  2  0  0  0  0
 20 21  1  0  0  0  0
 21 22  2  0  0  0  0
 23 24  2  0  0  0  0
 23 28  1  0  0  0  0
 24 25  1  0  0  0  0
 25 26  2  0  0  0  0
 26 27  1  0  0  0  0
 27 28  2  0  0  0  0
 29 30  2  0  0  0  0
 29 34  1  0  0  0  0
 30 31  1  0  0  0  0
 31 32  2  0  0  0  0
 32 33  1  0  0  0  0
 33 34  2  0  0  0  0
M  END
$$$$

 OpenBabel12191814062D

 35 39  0  0  0  0  0  0  0  0999 V2000
    0.1616   -3.0841    0.0000 C   0  0  0  0  0  0  0  0  0  0  0  0
    0.6465   -2.4167    0.0000 C   0  0  3  0  0  0  0  0  0  0  0  0
    0.3915   -1.6320    0.0000 N   0  0  0  0  0  0  0  0  0  0  0  0
    1.0590   -1.1471    0.0000 C   0  0  0  0  0  0  0  0  0  0  0  0
    1.7264   -1.6320    0.0000 C   0  0  0  0  0  0  0  0  0  0  0  0
    2.5110   -1.3771    0.0000 O   0  0  0  0  0  0  0  0  0  0  0  0
    1.4715   -2.4167    0.0000 N   0  0  0  0  0  0  0  0  0  0  0  0
    1.9564   -3.0841    0.0000 C   0  0  0  0  0  0  0  0  0  0  0  0
    1.6208   -3.8378    0.0000 C   0  0  0  0  0  0  0  0  0  0  0  0
    2.1058   -4.5052    0.0000 C   0  0  0  0  0  0  0  0  0  0  0  0
    1.7702   -5.2589    0.0000 N   0  0  0  0  0  0  0  0  0  0  0  0
    2.2551   -5.9263    0.0000 C   0  0  0  0  0  0  0  0  0  0  0  0
    1.9196   -6.6800    0.0000 C   0  0  0  0  0  0  0  0  0  0  0  0
    1.0991   -6.7662    0.0000 N   0  0  0  0  0  0  0  0  0  0  0  0
    0.6142   -6.0988    0.0000 C   0  0  0  0  0  0  0  0  0  0  0  0
    0.9497   -5.3451    0.0000 C   0  0  0  0  0  0  0  0  0  0  0  0
    0.7635   -7.5199    0.0000 C   0  0  0  0  0  0  0  0  0  0  0  0
    1.2485   -8.1874    0.0000 C   0  0  0  0  0  0  0  0  0  0  0  0
    0.9129   -8.9410    0.0000 C   0  0  0  0  0  0  0  0  0  0  0  0
    0.0924   -9.0273    0.0000 C   0  0  0  0  0  0  0  0  0  0  0  0
   -0.3925   -8.3598    0.0000 C   0  0  0  0  0  0  0  0  0  0  0  0
   -1.2130   -8.4461    0.0000 Cl  0  0  0  0  0  0  0  0  0  0  0  0
   -0.0569   -7.6062    0.0000 C   0  0  0  0  0  0  0  0  0  0  0  0
    0.4517   -0.5887    0.0000 C   0  0  0  0  0  0  0  0  0  0  0  0
   -0.3355   -0.8354    0.0000 C   0  0  0  0  0  0  0  0  0  0  0  0
   -0.9428   -0.2770    0.0000 C   0  0  0  0  0  0  0  0  0  0  0  0
   -0.7629    0.5281    0.0000 C   0  0  0  0  0  0  0  0  0  0  0  0
    0.0244    0.7749    0.0000 C   0  0  0  0  0  0  0  0  0  0  0  0
    0.6317    0.2164    0.0000 C   0  0  0  0  0  0  0  0  0  0  0  0
    1.4640   -0.4284    0.0000 C   0  0  0  0  0  0  0  0  0  0  0  0
    1.0440    0.2817    0.0000 C   0  0  0  0  0  0  0  0  0  0  0  0
    1.4490    1.0005    0.0000 C   0  0  0  0  0  0  0  0  0  0  0  0
    2.2740    1.0091    0.0000 C   0  0  0  0  0  0  0  0  0  0  0  0
    2.6939    0.2990    0.0000 C   0  0  0  0  0  0  0  0  0  0  0  0
    2.2889   -0.4197    0.0000 C   0  0  0  0  0  0  0  0  0  0  0  0
  1  2  1  0  0  0  0
  2  3  1  0  0  0  0
  2  7  1  0  0  0  0
  3  4  1  0  0  0  0
  4  5  1  0  0  0  0
  4 24  1  0  0  0  0
  4 30  1  0  0  0  0
  5  6  2  0  0  0  0
  5  7  1  0  0  0  0
  7  8  1  0  0  0  0
  8  9  1  0  0  0  0
  9 10  1  0  0  0  0
 10 11  1  0  0  0  0
 11 12  1  0  0  0  0
 11 16  1  0  0  0  0
 12 13  1  0  0  0  0
 13 14  1  0  0  0  0
 14 15  1  0  0  0  0
 14 17  1  0  0  0  0
 15 16  1  0  0  0  0
 17 18  2  0  0  0  0
 17 23  1  0  0  0  0
 18 19  1  0  0  0  0
 19 20  2  0  0  0  0
 20 21  1  0  0  0  0
 21 22  1  0  0  0  0
 21 23  2  0  0  0  0
 24 25  2  0  0  0  0
 24 29  1  0  0  0  0
 25 26  1  0  0  0  0
 26 27  2  0  0  0  0
 27 28  1  0  0  0  0
 28 29  2  0  0  0  0
 30 31  2  0  0  0  0
 30 35  1  0  0  0  0
 31 32  1  0  0  0  0
 32 33  2  0  0  0  0
 33 34  1  0  0  0  0
 34 35  2  0  0  0  0
M  END
$$$$

 OpenBabel12191814062D

 34 38  0  0  0  0  0  0  0  0999 V2000
    0.1616   -3.0841    0.0000 C   0  0  0  0  0  0  0  0  0  0  0  0
    0.6465   -2.4167    0.0000 C   0  0  3  0  0  0  0  0  0  0  0  0
    0.3915   -1.6320    0.0000 N   0  0  0  0  0  0  0  0  0  0  0  0
    1.0590   -1.1471    0.0000 C   0  0  0  0  0  0  0  0  0  0  0  0
    1.7264   -1.6320    0.0000 C   0  0  0  0  0  0  0  0  0  0  0  0
    2.5110   -1.3771    0.0000 O   0  0  0  0  0  0  0  0  0  0  0  0
    1.4715   -2.4167    0.0000 N   0  0  0  0  0  0  0  0  0  0  0  0
    1.9564   -3.0841    0.0000 C   0  0  0  0  0  0  0  0  0  0  0  0
    1.6208   -3.8378    0.0000 C   0  0  0  0  0  0  0  0  0  0  0  0
    2.1058   -4.5052    0.0000 C   0  0  0  0  0  0  0  0  0  0  0  0
    1.7702   -5.2589    0.0000 N   0  0  0  0  0  0  0  0  0  0  0  0
    2.2551   -5.9263    0.0000 C   0  0  0  0  0  0  0  0  0  0  0  0
    1.9196   -6.6800    0.0000 C   0  0  0  0  0  0  0  0  0  0  0  0
    1.0991   -6.7662    0.0000 N   0  0  0  0  0  0  0  0  0  0  0  0
    0.6142   -6.0988    0.0000 C   0  0  0  0  0  0  0  0  0  0  0  0
    0.9497   -5.3451    0.0000 C   0  0  0  0  0  0  0  0  0  0  0  0
    0.7635   -7.5199    0.0000 C   0  0  0  0  0  0  0  0  0  0  0  0
    1.2485   -8.1874    0.0000 C   0  0  0  0  0  0  0  0  0  0  0  0
    0.9129   -8.9410    0.0000 C   0  0  0  0  0  0  0  0  0  0  0  0
    0.0924   -9.0273    0.0000 C   0  0  0  0  0  0  0  0  0  0  0  0
   -0.3925   -8.3598    0.0000 C   0  0  0  0  0  0  0  0  0  0  0  0
   -0.0569   -7.6062    0.0000 C   0  0  0  0  0  0  0  0  0  0  0  0
    0.4517   -0.5887    0.0000 C   0  0  0  0  0  0  0  0  0  0  0  0
   -0.3355   -0.8354    0.0000 C   0  0  0  0  0  0  0  0  0  0  0  0
   -0.9428   -0.2770    0.0000 C   0  0  0  0  0  0  0  0  0  0  0  0
   -0.7629    0.5281    0.0000 C   0  0  0  0  0  0  0  0  0  0  0  0
    0.0244    0.7749    0.0000 C   0  0  0  0  0  0  0  0  0  0  0  0
    0.6317    0.2164    0.0000 C   0  0  0  0  0  0  0  0  0  0  0  0
    1.4640   -0.4284    0.0000 C   0  0  0  0  0  0  0  0  0  0  0  0
    1.0440    0.2817    0.0000 C   0  0  0  0  0  0  0  0  0  0  0  0
    1.4490    1.0005    0.0000 C   0  0  0  0  0  0  0  0  0  0  0  0
    2.2740    1.0091    0.0000 C   0  0  0  0  0  0  0  0  0  0  0  0
    2.6939    0.2990    0.0000 C   0  0  0  0  0  0  0  0  0  0  0  0
    2.2889   -0.4197    0.0000 C   0  0  0  0  0  0  0  0  0  0  0  0
  1  2  1  0  0  0  0
  2  3  1  0  0  0  0
  2  7  1  0  0  0  0
  3  4  1  0  0  0  0
  4  5  1  0  0  0  0
  4 23  1  0  0  0  0
  4 29  1  0  0  0  0
  5  6  2  0  0  0  0
  5  7  1  0  0  0  0
  7  8  1  0  0  0  0
  8  9  1  0  0  0  0
  9 10  1  0  0  0  0
 10 11  1  0  0  0  0
 11 12  1  0  0  0  0
 11 16  1  0  0  0  0
 12 13  1  0  0  0  0
 13 14  1  0  0  0  0
 14 15  1  0  0  0  0
 14 17  1  0  0  0  0
 15 16  1  0  0  0  0
 17 18  2  0  0  0  0
 17 22  1  0  0  0  0
 18 19  1  0  0  0  0
 19 20  2  0  0  0  0
 20 21  1  0  0  0  0
 21 22  2  0  0  0  0
 23 24  2  0  0  0  0
 23 28  1  0  0  0  0
 24 25  1  0  0  0  0
 25 26  2  0  0  0  0
 26 27  1  0  0  0  0
 27 28  2  0  0  0  0
 29 30  2  0  0  0  0
 29 34  1  0  0  0  0
 30 31  1  0  0  0  0
 31 32  2  0  0  0  0
 32 33  1  0  0  0  0
 33 34  2  0  0  0  0
M  END
$$$$

 OpenBabel12191814062D

 29 32  0  0  0  0  0  0  0  0999 V2000
    1.4289   -2.4750    0.0000 C   0  0  0  0  0  0  0  0  0  0  0  0
    1.4289   -1.6500    0.0000 C   0  0  0  0  0  0  0  0  0  0  0  0
    0.7145   -1.2375    0.0000 N   0  0  0  0  0  0  0  0  0  0  0  0
    0.7145   -0.4125    0.0000 C   0  0  0  0  0  0  0  0  0  0  0  0
    1.4289    0.0000    0.0000 C   0  0  0  0  0  0  0  0  0  0  0  0
    2.1434   -0.4125    0.0000 C   0  0  0  0  0  0  0  0  0  0  0  0
    2.8579    0.0000    0.0000 C   0  0  0  0  0  0  0  0  0  0  0  0
    3.5724   -0.4125    0.0000 C   0  0  0  0  0  0  0  0  0  0  0  0
    3.5724   -1.2375    0.0000 C   0  0  0  0  0  0  0  0  0  0  0  0
    2.8579   -1.6500    0.0000 C   0  0  0  0  0  0  0  0  0  0  0  0
    2.1434   -1.2375    0.0000 C   0  0  0  0  0  0  0  0  0  0  0  0
    0.0000    0.0000    0.0000 N   0  0  0  0  0  0  0  0  0  0  0  0
   -0.7145   -0.4125    0.0000 C   0  0  0  0  0  0  0  0  0  0  0  0
   -1.4289    0.0000    0.0000 C   0  0  0  0  0  0  0  0  0  0  0  0
   -1.4289    0.8250    0.0000 N   0  0  0  0  0  0  0  0  0  0  0  0
   -2.1434    1.2375    0.0000 C   0  0  0  0  0  0  0  0  0  0  0  0
   -2.8579    0.8250    0.0000 C   0  0  0  0  0  0  0  0  0  0  0  0
   -3.5724    1.2375    0.0000 C   0  0  0  0  0  0  0  0  0  0  0  0
   -4.2868    0.8250    0.0000 C   0  0  0  0  0  0  0  0  0  0  0  0
   -4.2868    0.0000    0.0000 O   0  0  0  0  0  0  0  0  0  0  0  0
   -5.0013    1.2375    0.0000 C   0  0  0  0  0  0  0  0  0  0  0  0
   -5.7158    0.8250    0.0000 C   0  0  0  0  0  0  0  0  0  0  0  0
   -6.4302    1.2375    0.0000 C   0  0  0  0  0  0  0  0  0  0  0  0
   -6.4302    2.0625    0.0000 C   0  0  0  0  0  0  0  0  0  0  0  0
   -7.1447    2.4750    0.0000 F   0  0  0  0  0  0  0  0  0  0  0  0
   -5.7158    2.4750    0.0000 C   0  0  0  0  0  0  0  0  0  0  0  0
   -5.0013    2.0625    0.0000 C   0  0  0  0  0  0  0  0  0  0  0  0
   -0.7145    1.2375    0.0000 C   0  0  0  0  0  0  0  0  0  0  0  0
    0.0000    0.8250    0.0000 C   0  0  0  0  0  0  0  0  0  0  0  0
  1  2  1  0  0  0  0
  2  3  2  0  0  0  0
  2 11  1  0  0  0  0
  3  4  1  0  0  0  0
  4  5  2  0  0  0  0
  4 12  1  0  0  0  0
  5  6  1  0  0  0  0
  6  7  2  0  0  0  0
  6 11  1  0  0  0  0
  7  8  1  0  0  0  0
  8  9  2  0  0  0  0
  9 10  1  0  0  0  0
 10 11  2  0  0  0  0
 12 13  1  0  0  0  0
 12 29  1  0  0  0  0
 13 14  1  0  0  0  0
 14 15  1  0  0  0  0
 15 16  1  0  0  0  0
 15 28  1  0  0  0  0
 16 17  1  0  0  0  0
 17 18  1  0  0  0  0
 18 19  1  0  0  0  0
 19 20  2  0  0  0  0
 19 21  1  0  0  0  0
 21 22  2  0  0  0  0
 21 27  1  0  0  0  0
 22 23  1  0  0  0  0
 23 24  2  0  0  0  0
 24 25  1  0  0  0  0
 24 26  1  0  0  0  0
 26 27  2  0  0  0  0
 28 29  1  0  0  0  0
M  END
$$$$

 OpenBabel12191814062D

 33 38  0  0  0  0  0  0  0  0999 V2000
    2.8314    4.2725    0.0000 C   0  0  0  0  0  0  0  0  0  0  0  0
    2.3464    3.6051    0.0000 C   0  0  0  0  0  0  0  0  0  0  0  0
    2.6014    2.8204    0.0000 N   0  0  0  0  0  0  0  0  0  0  0  0
    1.9339    2.3355    0.0000 C   0  0  0  0  0  0  0  0  0  0  0  0
    1.2665    2.8204    0.0000 N   0  0  0  0  0  0  0  0  0  0  0  0
    1.5214    3.6051    0.0000 O   0  0  0  0  0  0  0  0  0  0  0  0
    1.9339    1.5105    0.0000 C   0  0  0  0  0  0  0  0  0  0  0  0
    2.6014    1.0256    0.0000 C   0  0  0  0  0  0  0  0  0  0  0  0
    3.4084    1.1971    0.0000 C   0  0  0  0  0  0  0  0  0  0  0  0
    3.9604    0.5840    0.0000 C   0  0  0  0  0  0  0  0  0  0  0  0
    3.7054   -0.2006    0.0000 C   0  0  0  0  0  0  0  0  0  0  0  0
    2.8985   -0.3721    0.0000 C   0  0  0  0  0  0  0  0  0  0  0  0
    2.3464    0.2410    0.0000 N   0  0  0  0  0  0  0  0  0  0  0  0
    1.5214    0.2410    0.0000 C   0  0  0  0  0  0  0  0  0  0  0  0
    0.9694   -0.3721    0.0000 C   0  0  0  0  0  0  0  0  0  0  0  0
    0.1624   -0.2006    0.0000 N   0  0  0  0  0  0  0  0  0  0  0  0
   -0.0925    0.5840    0.0000 C   0  0  0  0  0  0  0  0  0  0  0  0
    0.4595    1.1971    0.0000 N   0  0  0  0  0  0  0  0  0  0  0  0
    1.2665    1.0256    0.0000 C   0  0  0  0  0  0  0  0  0  0  0  0
    1.2243   -1.1567    0.0000 N   0  0  0  0  0  0  0  0  0  0  0  0
    2.0313   -1.3283    0.0000 C   0  0  0  0  0  0  0  0  0  0  0  0
    2.2863   -2.1129    0.0000 C   0  0  0  0  0  0  0  0  0  0  0  0
    1.7342   -2.7260    0.0000 N   0  0  0  0  0  0  0  0  0  0  0  0
    1.9892   -3.5106    0.0000 C   0  0  0  0  0  0  0  0  0  0  0  0
    2.7961   -3.6821    0.0000 C   0  0  0  0  0  0  0  0  0  0  0  0
    3.0511   -4.4668    0.0000 C   0  0  0  0  0  0  0  0  0  0  0  0
    3.8580   -4.6383    0.0000 C   0  0  0  0  0  0  0  0  0  0  0  0
    4.1130   -5.4229    0.0000 C   0  0  0  0  0  0  0  0  0  0  0  0
    3.5610   -6.0360    0.0000 C   0  0  0  0  0  0  0  0  0  0  0  0
    2.7540   -5.8645    0.0000 C   0  0  0  0  0  0  0  0  0  0  0  0
    2.4990   -5.0799    0.0000 C   0  0  0  0  0  0  0  0  0  0  0  0
    0.9273   -2.5545    0.0000 C   0  0  0  0  0  0  0  0  0  0  0  0
    0.6723   -1.7698    0.0000 C   0  0  0  0  0  0  0  0  0  0  0  0
  1  2  1  0  0  0  0
  2  3  2  0  0  0  0
  2  6  1  0  0  0  0
  3  4  1  0  0  0  0
  4  5  2  0  0  0  0
  4  7  1  0  0  0  0
  5  6  1  0  0  0  0
  7  8  2  0  0  0  0
  7 19  1  0  0  0  0
  8  9  1  0  0  0  0
  8 13  1  0  0  0  0
  9 10  1  0  0  0  0
 10 11  1  0  0  0  0
 11 12  1  0  0  0  0
 12 13  1  0  0  0  0
 13 14  1  0  0  0  0
 14 15  2  0  0  0  0
 14 19  1  0  0  0  0
 15 16  1  0  0  0  0
 15 20  1  0  0  0  0
 16 17  2  0  0  0  0
 17 18  1  0  0  0  0
 18 19  2  0  0  0  0
 20 21  1  0  0  0  0
 20 33  1  0  0  0  0
 21 22  1  0  0  0  0
 22 23  1  0  0  0  0
 23 24  1  0  0  0  0
 23 32  1  0  0  0  0
 24 25  1  0  0  0  0
 25 26  1  0  0  0  0
 26 27  2  0  0  0  0
 26 31  1  0  0  0  0
 27 28  1  0  0  0  0
 28 29  2  0  0  0  0
 29 30  1  0  0  0  0
 30 31  2  0  0  0  0
 32 33  1  0  0  0  0
M  END
$$$$

 OpenBabel12191814062D

 34 39  0  0  0  0  0  0  0  0999 V2000
    2.8314    4.2725    0.0000 C   0  0  0  0  0  0  0  0  0  0  0  0
    2.3464    3.6051    0.0000 C   0  0  0  0  0  0  0  0  0  0  0  0
    2.6014    2.8204    0.0000 N   0  0  0  0  0  0  0  0  0  0  0  0
    1.9339    2.3355    0.0000 C   0  0  0  0  0  0  0  0  0  0  0  0
    1.2665    2.8204    0.0000 S   0  0  0  0  0  0  0  0  0  0  0  0
    1.5214    3.6051    0.0000 C   0  0  0  0  0  0  0  0  0  0  0  0
    1.0365    4.2725    0.0000 C   0  0  0  0  0  0  0  0  0  0  0  0
    1.9339    1.5105    0.0000 C   0  0  0  0  0  0  0  0  0  0  0  0
    2.6014    1.0256    0.0000 C   0  0  0  0  0  0  0  0  0  0  0  0
    3.4084    1.1971    0.0000 C   0  0  0  0  0  0  0  0  0  0  0  0
    3.9604    0.5840    0.0000 C   0  0  0  0  0  0  0  0  0  0  0  0
    3.7054   -0.2006    0.0000 C   0  0  0  0  0  0  0  0  0  0  0  0
    2.8985   -0.3721    0.0000 C   0  0  0  0  0  0  0  0  0  0  0  0
    2.3464    0.2410    0.0000 N   0  0  0  0  0  0  0  0  0  0  0  0
    1.5214    0.2410    0.0000 C   0  0  0  0  0  0  0  0  0  0  0  0
    0.9694   -0.3721    0.0000 C   0  0  0  0  0  0  0  0  0  0  0  0
    0.1624   -0.2006    0.0000 N   0  0  0  0  0  0  0  0  0  0  0  0
   -0.0925    0.5840    0.0000 C   0  0  0  0  0  0  0  0  0  0  0  0
    0.4595    1.1971    0.0000 N   0  0  0  0  0  0  0  0  0  0  0  0
    1.2665    1.0256    0.0000 C   0  0  0  0  0  0  0  0  0  0  0  0
    1.2243   -1.1567    0.0000 N   0  0  0  0  0  0  0  0  0  0  0  0
    2.0313   -1.3283    0.0000 C   0  0  0  0  0  0  0  0  0  0  0  0
    2.2863   -2.1129    0.0000 C   0  0  0  0  0  0  0  0  0  0  0  0
    1.7342   -2.7260    0.0000 N   0  0  0  0  0  0  0  0  0  0  0  0
    1.9892   -3.5106    0.0000 C   0  0  0  0  0  0  0  0  0  0  0  0
    2.7961   -3.6821    0.0000 C   0  0  0  0  0  0  0  0  0  0  0  0
    3.0511   -4.4668    0.0000 C   0  0  0  0  0  0  0  0  0  0  0  0
    3.8580   -4.6383    0.0000 C   0  0  0  0  0  0  0  0  0  0  0  0
    4.1130   -5.4229    0.0000 C   0  0  0  0  0  0  0  0  0  0  0  0
    3.5610   -6.0360    0.0000 C   0  0  0  0  0  0  0  0  0  0  0  0
    2.7540   -5.8645    0.0000 C   0  0  0  0  0  0  0  0  0  0  0  0
    2.4990   -5.0799    0.0000 C   0  0  0  0  0  0  0  0  0  0  0  0
    0.9273   -2.5545    0.0000 C   0  0  0  0  0  0  0  0  0  0  0  0
    0.6723   -1.7698    0.0000 C   0  0  0  0  0  0  0  0  0  0  0  0
  1  2  1  0  0  0  0
  2  3  1  0  0  0  0
  2  6  2  0  0  0  0
  3  4  2  0  0  0  0
  4  5  1  0  0  0  0
  4  8  1  0  0  0  0
  5  6  1  0  0  0  0
  6  7  1  0  0  0  0
  8  9  2  0  0  0  0
  8 20  1  0  0  0  0
  9 10  1  0  0  0  0
  9 14  1  0  0  0  0
 10 11  1  0  0  0  0
 11 12  1  0  0  0  0
 12 13  1  0  0  0  0
 13 14  1  0  0  0  0
 14 15  1  0  0  0  0
 15 16  2  0  0  0  0
 15 20  1  0  0  0  0
 16 17  1  0  0  0  0
 16 21  1  0  0  0  0
 17 18  2  0  0  0  0
 18 19  1  0  0  0  0
 19 20  2  0  0  0  0
 21 22  1  0  0  0  0
 21 34  1  0  0  0  0
 22 23  1  0  0  0  0
 23 24  1  0  0  0  0
 24 25  1  0  0  0  0
 24 33  1  0  0  0  0
 25 26  1  0  0  0  0
 26 27  1  0  0  0  0
 27 28  2  0  0  0  0
 27 32  1  0  0  0  0
 28 29  1  0  0  0  0
 29 30  2  0  0  0  0
 30 31  1  0  0  0  0
 31 32  2  0  0  0  0
 33 34  1  0  0  0  0
M  END
$$$$

 OpenBabel12191814062D

 26 29  0  0  0  0  0  0  0  0999 V2000
    0.0000    0.0000    0.0000 C   0  0  0  0  0  0  0  0  0  0  0  0
    0.7145   -0.4125    0.0000 C   0  0  3  0  0  0  0  0  0  0  0  0
    1.4289    0.0000    0.0000 N   0  0  0  0  0  0  0  0  0  0  0  0
    2.1434   -0.4125    0.0000 C   0  0  0  0  0  0  0  0  0  0  0  0
    2.8579    0.0000    0.0000 C   0  0  0  0  0  0  0  0  0  0  0  0
    3.5724   -0.4125    0.0000 C   0  0  0  0  0  0  0  0  0  0  0  0
    3.5724   -1.2375    0.0000 C   0  0  0  0  0  0  0  0  0  0  0  0
    2.8579   -1.6500    0.0000 C   0  0  0  0  0  0  0  0  0  0  0  0
    2.1434   -1.2375    0.0000 C   0  0  0  0  0  0  0  0  0  0  0  0
    1.4289   -1.6500    0.0000 C   0  0  3  0  0  0  0  0  0  0  0  0
    0.7145   -1.2375    0.0000 C   0  0  3  0  0  0  0  0  0  0  0  0
    0.0000   -1.6500    0.0000 O   0  0  0  0  0  0  0  0  0  0  0  0
   -0.7145   -1.2375    0.0000 C   0  0  0  0  0  0  0  0  0  0  0  0
   -0.7145   -0.4125    0.0000 O   0  0  0  0  0  0  0  0  0  0  0  0
   -1.4289   -1.6500    0.0000 C   0  0  0  0  0  0  0  0  0  0  0  0
   -1.4289   -2.4750    0.0000 C   0  0  0  0  0  0  0  0  0  0  0  0
   -2.1434   -2.8875    0.0000 C   0  0  0  0  0  0  0  0  0  0  0  0
   -2.8579   -2.4750    0.0000 C   0  0  0  0  0  0  0  0  0  0  0  0
   -3.5724   -2.8875    0.0000 C   0  0  0  0  0  0  0  0  0  0  0  0
   -2.8579   -1.6500    0.0000 C   0  0  0  0  0  0  0  0  0  0  0  0
   -2.1434   -1.2375    0.0000 C   0  0  0  0  0  0  0  0  0  0  0  0
    1.4289   -2.4750    0.0000 N   0  0  0  0  0  0  0  0  0  0  0  0
    2.0964   -2.9599    0.0000 C   0  0  0  0  0  0  0  0  0  0  0  0
    1.8414   -3.7445    0.0000 C   0  0  0  0  0  0  0  0  0  0  0  0
    1.0164   -3.7445    0.0000 C   0  0  0  0  0  0  0  0  0  0  0  0
    0.7615   -2.9599    0.0000 C   0  0  0  0  0  0  0  0  0  0  0  0
  1  2  1  0  0  0  0
  2  3  1  0  0  0  0
  2 11  1  0  0  0  0
  3  4  1  0  0  0  0
  4  5  2  0  0  0  0
  4  9  1  0  0  0  0
  5  6  1  0  0  0  0
  6  7  2  0  0  0  0
  7  8  1  0  0  0  0
  8  9  2  0  0  0  0
  9 10  1  0  0  0  0
 10 11  1  0  0  0  0
 10 22  1  0  0  0  0
 11 12  1  0  0  0  0
 12 13  1  0  0  0  0
 13 14  2  0  0  0  0
 13 15  1  0  0  0  0
 15 16  2  0  0  0  0
 15 21  1  0  0  0  0
 16 17  1  0  0  0  0
 17 18  2  0  0  0  0
 18 19  1  0  0  0  0
 18 20  1  0  0  0  0
 20 21  2  0  0  0  0
 22 23  1  0  0  0  0
 22 26  1  0  0  0  0
 23 24  1  0  0  0  0
 24 25  1  0  0  0  0
 25 26  1  0  0  0  0
M  END
$$$$

 OpenBabel12191814062D

 30 34  0  0  0  0  0  0  0  0999 V2000
    7.4575   -8.8836    0.0000 C   0  0  0  0  0  0  0  0  0  0  0  0
    6.6505   -9.0551    0.0000 C   0  0  0  0  0  0  0  0  0  0  0  0
    6.3956   -9.8398    0.0000 N   0  0  0  0  0  0  0  0  0  0  0  0
    5.5886  -10.0113    0.0000 C   0  0  0  0  0  0  0  0  0  0  0  0
    5.3337  -10.7959    0.0000 C   0  0  0  0  0  0  0  0  0  0  0  0
    4.5267  -10.9674    0.0000 C   0  0  0  0  0  0  0  0  0  0  0  0
    3.9747  -10.3543    0.0000 C   0  0  0  0  0  0  0  0  0  0  0  0
    4.2296   -9.5697    0.0000 C   0  0  0  0  0  0  0  0  0  0  0  0
    5.0366   -9.3982    0.0000 N   0  0  0  0  0  0  0  0  0  0  0  0
    5.2915   -8.6136    0.0000 C   0  0  0  0  0  0  0  0  0  0  0  0
    4.7395   -8.0005    0.0000 O   0  0  0  0  0  0  0  0  0  0  0  0
    6.0985   -8.4420    0.0000 C   0  0  0  0  0  0  0  0  0  0  0  0
    6.3534   -7.6574    0.0000 C   0  0  0  0  0  0  0  0  0  0  0  0
    5.8014   -7.0443    0.0000 C   0  0  0  0  0  0  0  0  0  0  0  0
    6.0563   -6.2597    0.0000 N   0  0  0  0  0  0  0  0  0  0  0  0
    5.5043   -5.6466    0.0000 C   0  0  0  0  0  0  0  0  0  0  0  0
    5.7592   -4.8620    0.0000 C   0  0  0  0  0  0  0  0  0  0  0  0
    6.5662   -4.6905    0.0000 C   0  0  0  0  0  0  0  0  0  0  0  0
    7.1182   -5.3035    0.0000 C   0  0  0  0  0  0  0  0  0  0  0  0
    6.8633   -6.0882    0.0000 C   0  0  0  0  0  0  0  0  0  0  0  0
    6.8211   -3.9058    0.0000 C   0  0  0  0  0  0  0  0  0  0  0  0
    6.3362   -3.2384    0.0000 N   0  0  0  0  0  0  0  0  0  0  0  0
    6.8211   -2.5710    0.0000 O   0  0  0  0  0  0  0  0  0  0  0  0
    7.6058   -2.8259    0.0000 C   0  0  0  0  0  0  0  0  0  0  0  0
    8.3202   -2.4134    0.0000 C   0  0  0  0  0  0  0  0  0  0  0  0
    9.0347   -2.8259    0.0000 C   0  0  0  0  0  0  0  0  0  0  0  0
    9.7492   -2.4134    0.0000 F   0  0  0  0  0  0  0  0  0  0  0  0
    9.0347   -3.6509    0.0000 C   0  0  0  0  0  0  0  0  0  0  0  0
    8.3202   -4.0634    0.0000 C   0  0  0  0  0  0  0  0  0  0  0  0
    7.6058   -3.6509    0.0000 C   0  0  0  0  0  0  0  0  0  0  0  0
  1  2  1  0  0  0  0
  2  3  1  0  0  0  0
  2 12  2  0  0  0  0
  3  4  2  0  0  0  0
  4  5  1  0  0  0  0
  4  9  1  0  0  0  0
  5  6  1  0  0  0  0
  6  7  1  0  0  0  0
  7  8  1  0  0  0  0
  8  9  1  0  0  0  0
  9 10  1  0  0  0  0
 10 11  2  0  0  0  0
 10 12  1  0  0  0  0
 12 13  1  0  0  0  0
 13 14  1  0  0  0  0
 14 15  1  0  0  0  0
 15 16  1  0  0  0  0
 15 20  1  0  0  0  0
 16 17  1  0  0  0  0
 17 18  1  0  0  0  0
 18 19  1  0  0  0  0
 18 21  1  0  0  0  0
 19 20  1  0  0  0  0
 21 22  2  0  0  0  0
 21 30  1  0  0  0  0
 22 23  1  0  0  0  0
 23 24  1  0  0  0  0
 24 25  2  0  0  0  0
 24 30  1  0  0  0  0
 25 26  1  0  0  0  0
 26 27  1  0  0  0  0
 26 28  2  0  0  0  0
 28 29  1  0  0  0  0
 29 30  2  0  0  0  0
M  END
$$$$

 OpenBabel12191814062D

 23 26  0  0  0  0  0  0  0  0999 V2000
    1.7654   -2.3835    0.0000 C   0  0  0  0  0  0  0  0  0  0  0  0
    1.4456   -1.6230    0.0000 C   0  0  0  0  0  0  0  0  0  0  0  0
    0.6423   -1.4348    0.0000 N   0  0  0  0  0  0  0  0  0  0  0  0
    0.5732   -0.6127    0.0000 C   0  0  0  0  0  0  0  0  0  0  0  0
    1.3337   -0.2928    0.0000 C   0  0  0  0  0  0  0  0  0  0  0  0
    1.4857    0.5180    0.0000 C   0  0  0  0  0  0  0  0  0  0  0  0
    2.2145    0.9047    0.0000 N   0  0  0  0  0  0  0  0  0  0  0  0
    2.9712    0.5760    0.0000 C   0  0  0  0  0  0  0  0  0  0  0  0
    3.5956    1.1152    0.0000 C   0  0  0  0  0  0  0  0  0  0  0  0
    3.4409    1.9256    0.0000 C   0  0  0  0  0  0  0  0  0  0  0  0
    4.0654    2.4647    0.0000 C   0  0  0  0  0  0  0  0  0  0  0  0
    4.8445    2.1935    0.0000 C   0  0  0  0  0  0  0  0  0  0  0  0
    4.9992    1.3832    0.0000 C   0  0  0  0  0  0  0  0  0  0  0  0
    4.3748    0.8440    0.0000 C   0  0  0  0  0  0  0  0  0  0  0  0
    4.5295    0.0336    0.0000 F   0  0  0  0  0  0  0  0  0  0  0  0
    3.1860   -0.2205    0.0000 C   0  0  0  0  0  0  0  0  0  0  0  0
    4.0060   -0.3115    0.0000 C   0  0  0  0  0  0  0  0  0  0  0  0
    4.3371   -1.0671    0.0000 C   0  0  0  0  0  0  0  0  0  0  0  0
    5.1571   -1.1582    0.0000 Cl  0  0  0  0  0  0  0  0  0  0  0  0
    3.8483   -1.7317    0.0000 C   0  0  0  0  0  0  0  0  0  0  0  0
    3.0283   -1.6407    0.0000 C   0  0  0  0  0  0  0  0  0  0  0  0
    2.6972   -0.8851    0.0000 C   0  0  0  0  0  0  0  0  0  0  0  0
    1.8728   -0.9173    0.0000 N   0  0  0  0  0  0  0  0  0  0  0  0
  1  2  1  0  0  0  0
  2  3  2  0  0  0  0
  2 23  1  0  0  0  0
  3  4  1  0  0  0  0
  4  5  2  0  0  0  0
  5  6  1  0  0  0  0
  5 23  1  0  0  0  0
  6  7  1  0  0  0  0
  7  8  2  0  0  0  0
  8  9  1  0  0  0  0
  8 16  1  0  0  0  0
  9 10  2  0  0  0  0
  9 14  1  0  0  0  0
 10 11  1  0  0  0  0
 11 12  2  0  0  0  0
 12 13  1  0  0  0  0
 13 14  2  0  0  0  0
 14 15  1  0  0  0  0
 16 17  2  0  0  0  0
 16 22  1  0  0  0  0
 17 18  1  0  0  0  0
 18 19  1  0  0  0  0
 18 20  2  0  0  0  0
 20 21  1  0  0  0  0
 21 22  2  0  0  0  0
 22 23  1  0  0  0  0
M  END
$$$$

 OpenBabel12191814062D

 54 60  0  0  0  0  0  0  0  0999 V2000
   -3.3753    1.0173    0.0000 C   0  0  0  0  0  0  0  0  0  0  0  0
   -3.4072    0.1929    0.0000 C   0  0  3  0  0  0  0  0  0  0  0  0
   -2.7092   -0.2468    0.0000 O   0  0  0  0  0  0  0  0  0  0  0  0
   -2.7410   -1.0712    0.0000 C   0  0  3  0  0  0  0  0  0  0  0  0
   -3.4709   -1.4558    0.0000 C   0  0  3  0  0  0  0  0  0  0  0  0
   -4.1689   -1.0161    0.0000 C   0  0  0  0  0  0  0  0  0  0  0  0
   -4.1370   -0.1917    0.0000 C   0  0  3  0  0  0  0  0  0  0  0  0
   -4.8351    0.2481    0.0000 O   0  0  0  0  0  0  0  0  0  0  0  0
   -3.5027   -2.2802    0.0000 O   0  0  0  0  0  0  0  0  0  0  0  0
   -2.8047   -2.7200    0.0000 C   0  0  0  0  0  0  0  0  0  0  0  0
   -2.0748   -2.3354    0.0000 C   0  0  0  0  0  0  0  0  0  0  0  0
   -2.8366   -3.5444    0.0000 O   0  0  0  0  0  0  0  0  0  0  0  0
   -2.0430   -1.5110    0.0000 C   0  0  3  0  0  0  0  0  0  0  0  0
   -2.5550   -2.1579    0.0000 C   0  0  0  0  0  0  0  0  0  0  0  0
   -1.4819   -2.0624    0.0000 C   0  0  0  0  0  0  0  0  0  0  0  0
   -1.5946   -2.8797    0.0000 O   0  0  0  0  0  0  0  0  0  0  0  0
   -0.7243   -1.6459    0.0000 C   0  0  0  0  0  0  0  0  0  0  0  0
    0.0112   -2.0494    0.0000 C   0  0  0  0  0  0  0  0  0  0  0  0
    0.7106   -1.6627    0.0000 C   0  0  0  0  0  0  0  0  0  0  0  0
    1.5044   -2.0364    0.0000 C   0  0  0  0  0  0  0  0  0  0  0  0
    2.0558   -1.4752    0.0000 C   0  0  0  0  0  0  0  0  0  0  0  0
    2.8703   -1.6063    0.0000 C   0  0  0  0  0  0  0  0  0  0  0  0
    1.6683   -0.6881    0.0000 C   0  0  0  0  0  0  0  0  0  0  0  0
    2.0427    0.0179    0.0000 C   0  0  0  0  0  0  0  0  0  0  0  0
    1.6265    0.7462    0.0000 C   0  0  0  0  0  0  0  0  0  0  0  0
    0.8643    0.8567    0.0000 N   0  0  0  0  0  0  0  0  0  0  0  0
    0.7107    1.6752    0.0000 C   0  0  0  0  0  0  0  0  0  0  0  0
    0.0047    2.0496    0.0000 C   0  0  0  0  0  0  0  0  0  0  0  0
   -0.7239    1.6627    0.0000 C   0  0  0  0  0  0  0  0  0  0  0  0
   -0.8926    0.8706    0.0000 N   0  0  0  0  0  0  0  0  0  0  0  0
   -1.6818    0.7174    0.0000 C   0  0  0  0  0  0  0  0  0  0  0  0
   -2.0393    1.4169    0.0000 C   0  0  0  0  0  0  0  0  0  0  0  0
   -1.4588    2.0076    0.0000 C   0  0  0  0  0  0  0  0  0  0  0  0
   -1.6046    2.8196    0.0000 C   0  0  0  0  0  0  0  0  0  0  0  0
   -2.0558   -0.0472    0.0000 C   0  0  0  0  0  0  0  0  0  0  0  0
   -1.6690   -0.7465    0.0000 C   0  0  0  0  0  0  0  0  0  0  0  0
   -0.8480   -0.8857    0.0000 N   0  0  0  0  0  0  0  0  0  0  0  0
    1.4686    2.0624    0.0000 C   0  0  0  0  0  0  0  0  0  0  0  0
    1.5937    2.8779    0.0000 O   0  0  0  0  0  0  0  0  0  0  0  0
    2.0297    1.5110    0.0000 C   0  0  3  0  0  0  0  0  0  0  0  0
    2.6762    2.0235    0.0000 C   0  0  0  0  0  0  0  0  0  0  0  0
    2.8014    1.2194    0.0000 C   0  0  3  0  0  0  0  0  0  0  0  0
    2.9348    0.4052    0.0000 O   0  0  0  0  0  0  0  0  0  0  0  0
    3.7065    0.1136    0.0000 C   0  0  3  0  0  0  0  0  0  0  0  0
    3.8398   -0.7006    0.0000 C   0  0  0  0  0  0  0  0  0  0  0  0
    4.3449    0.6361    0.0000 C   0  0  3  0  0  0  0  0  0  0  0  0
    5.1167    0.3445    0.0000 O   0  0  0  0  0  0  0  0  0  0  0  0
    4.2116    1.4503    0.0000 C   0  0  0  0  0  0  0  0  0  0  0  0
    3.4399    1.7419    0.0000 C   0  0  3  0  0  0  0  0  0  0  0  0
    3.3065    2.5561    0.0000 O   0  0  0  0  0  0  0  0  0  0  0  0
    2.5348    2.8477    0.0000 C   0  0  0  0  0  0  0  0  0  0  0  0
    1.8964    2.3252    0.0000 C   0  0  0  0  0  0  0  0  0  0  0  0
    2.4015    3.6618    0.0000 O   0  0  0  0  0  0  0  0  0  0  0  0
    0.8501   -0.8709    0.0000 N   0  0  0  0  0  0  0  0  0  0  0  0
  1  2  1  0  0  0  0
  2  3  1  0  0  0  0
  2  7  1  0  0  0  0
  3  4  1  0  0  0  0
  4  5  1  0  0  0  0
  4 13  1  0  0  0  0
  5  6  1  0  0  0  0
  5  9  1  0  0  0  0
  6  7  1  0  0  0  0
  7  8  1  0  0  0  0
  9 10  1  0  0  0  0
 10 11  1  0  0  0  0
 10 12  2  0  0  0  0
 13 14  1  0  0  0  0
 13 15  1  0  0  0  0
 13 36  1  0  0  0  0
 15 16  2  0  0  0  0
 15 17  1  0  0  0  0
 17 18  2  0  0  0  0
 17 37  1  0  0  0  0
 18 19  1  0  0  0  0
 19 20  2  0  0  0  0
 19 54  1  0  0  0  0
 20 21  1  0  0  0  0
 21 22  1  0  0  0  0
 21 23  2  0  0  0  0
 23 24  1  0  0  0  0
 23 54  1  0  0  0  0
 24 25  2  0  0  0  0
 25 26  1  0  0  0  0
 25 40  1  0  0  0  0
 26 27  2  0  0  0  0
 27 28  1  0  0  0  0
 27 38  1  0  0  0  0
 28 29  2  0  0  0  0
 29 30  1  0  0  0  0
 29 33  1  0  0  0  0
 30 31  1  0  0  0  0
 31 32  1  0  0  0  0
 31 35  2  0  0  0  0
 32 33  2  0  0  0  0
 33 34  1  0  0  0  0
 35 36  1  0  0  0  0
 36 37  2  0  0  0  0
 38 39  2  0  0  0  0
 38 40  1  0  0  0  0
 40 41  1  0  0  0  0
 40 42  1  0  0  0  0
 42 43  1  0  0  0  0
 42 49  1  0  0  0  0
 43 44  1  0  0  0  0
 44 45  1  0  0  0  0
 44 46  1  0  0  0  0
 46 47  1  0  0  0  0
 46 48  1  0  0  0  0
 48 49  1  0  0  0  0
 49 50  1  0  0  0  0
 50 51  1  0  0  0  0
 51 52  1  0  0  0  0
 51 53  2  0  0  0  0
M  END
$$$$

 OpenBabel12191814062D

 36 40  0  0  0  0  0  0  0  0999 V2000
    0.0000   -4.9500    0.0000 C   0  0  0  0  0  0  0  0  0  0  0  0
    0.7145   -5.3625    0.0000 C   0  0  3  0  0  0  0  0  0  0  0  0
    1.4289   -4.9500    0.0000 O   0  0  0  0  0  0  0  0  0  0  0  0
    2.1434   -5.3625    0.0000 C   0  0  3  0  0  0  0  0  0  0  0  0
    2.1434   -6.1875    0.0000 C   0  0  0  0  0  0  0  0  0  0  0  0
    1.4289   -6.6000    0.0000 C   0  0  3  0  0  0  0  0  0  0  0  0
    1.4289   -7.4250    0.0000 N   0  0  0  0  0  0  0  0  0  0  0  0
    0.7145   -6.1875    0.0000 C   0  0  3  0  0  0  0  0  0  0  0  0
    0.0000   -6.6000    0.0000 O   0  0  0  0  0  0  0  0  0  0  0  0
    2.8579   -4.9500    0.0000 O   0  0  0  0  0  0  0  0  0  0  0  0
    2.8579   -4.1250    0.0000 C   0  0  3  0  0  0  0  0  0  0  0  0
    2.1434   -3.7125    0.0000 C   0  0  0  0  0  0  0  0  0  0  0  0
    2.1434   -2.8875    0.0000 C   0  0  3  0  0  0  0  0  0  0  0  0
    1.3309   -3.0308    0.0000 O   0  0  0  0  0  0  0  0  0  0  0  0
    2.8579   -2.4750    0.0000 C   0  0  0  0  0  0  0  0  0  0  0  0
    3.5724   -2.8875    0.0000 C   0  0  0  0  0  0  0  0  0  0  0  0
    4.2868   -2.4750    0.0000 C   0  0  0  0  0  0  0  0  0  0  0  0
    4.2868   -1.6500    0.0000 O   0  0  0  0  0  0  0  0  0  0  0  0
    5.0013   -2.8875    0.0000 C   0  0  0  0  0  0  0  0  0  0  0  0
    5.7158   -2.4750    0.0000 C   0  0  0  0  0  0  0  0  0  0  0  0
    5.7158   -1.6500    0.0000 O   0  0  0  0  0  0  0  0  0  0  0  0
    6.4302   -2.8875    0.0000 C   0  0  0  0  0  0  0  0  0  0  0  0
    7.1447   -2.4750    0.0000 C   0  0  0  0  0  0  0  0  0  0  0  0
    7.8592   -2.8875    0.0000 C   0  0  0  0  0  0  0  0  0  0  0  0
    7.8592   -3.7125    0.0000 C   0  0  0  0  0  0  0  0  0  0  0  0
    7.1447   -4.1250    0.0000 C   0  0  0  0  0  0  0  0  0  0  0  0
    6.4302   -3.7125    0.0000 C   0  0  0  0  0  0  0  0  0  0  0  0
    5.7158   -4.1250    0.0000 C   0  0  0  0  0  0  0  0  0  0  0  0
    5.7158   -4.9500    0.0000 O   0  0  0  0  0  0  0  0  0  0  0  0
    5.0013   -3.7125    0.0000 C   0  0  0  0  0  0  0  0  0  0  0  0
    4.2868   -4.1250    0.0000 C   0  0  0  0  0  0  0  0  0  0  0  0
    4.2868   -4.9500    0.0000 O   0  0  0  0  0  0  0  0  0  0  0  0
    3.5724   -3.7125    0.0000 C   0  0  0  0  0  0  0  0  0  0  0  0
    1.8612   -2.1123    0.0000 C   0  0  0  0  0  0  0  0  0  0  0  0
    2.3915   -1.4803    0.0000 C   0  0  0  0  0  0  0  0  0  0  0  0
    1.0488   -1.9690    0.0000 O   0  0  0  0  0  0  0  0  0  0  0  0
  1  2  1  0  0  0  0
  2  3  1  0  0  0  0
  2  8  1  0  0  0  0
  3  4  1  0  0  0  0
  4  5  1  0  0  0  0
  4 10  1  0  0  0  0
  5  6  1  0  0  0  0
  6  7  1  0  0  0  0
  6  8  1  0  0  0  0
  8  9  1  0  0  0  0
 10 11  1  0  0  0  0
 11 12  1  0  0  0  0
 11 33  1  0  0  0  0
 12 13  1  0  0  0  0
 13 14  1  0  0  0  0
 13 15  1  0  0  0  0
 13 34  1  0  0  0  0
 15 16  1  0  0  0  0
 16 17  2  0  0  0  0
 16 33  1  0  0  0  0
 17 18  1  0  0  0  0
 17 19  1  0  0  0  0
 19 20  1  0  0  0  0
 19 30  2  0  0  0  0
 20 21  2  0  0  0  0
 20 22  1  0  0  0  0
 22 23  2  0  0  0  0
 22 27  1  0  0  0  0
 23 24  1  0  0  0  0
 24 25  2  0  0  0  0
 25 26  1  0  0  0  0
 26 27  2  0  0  0  0
 27 28  1  0  0  0  0
 28 29  2  0  0  0  0
 28 30  1  0  0  0  0
 30 31  1  0  0  0  0
 31 32  1  0  0  0  0
 31 33  2  0  0  0  0
 34 35  1  0  0  0  0
 34 36  2  0  0  0  0
M  END
$$$$

 OpenBabel12191814062D

 23 24  0  0  0  0  0  0  0  0999 V2000
   -1.3480   -1.9520    0.0000 C   0  0  0  0  0  0  0  0  0  0  0  0
   -0.5230   -1.9520    0.0000 C   0  0  0  0  0  0  0  0  0  0  0  0
   -0.1105   -1.2375    0.0000 C   0  0  0  0  0  0  0  0  0  0  0  0
   -0.5230   -0.5230    0.0000 O   0  0  0  0  0  0  0  0  0  0  0  0
    0.7145   -1.2375    0.0000 C   0  0  0  0  0  0  0  0  0  0  0  0
    1.5395   -1.2375    0.0000 C   0  0  0  0  0  0  0  0  0  0  0  0
    1.9520   -0.5230    0.0000 C   0  0  3  0  0  0  0  0  0  0  0  0
    1.7804    0.2839    0.0000 C   0  0  0  0  0  0  0  0  0  0  0  0
    2.7770   -0.5230    0.0000 N   0  0  0  0  0  0  0  0  0  0  0  0
    3.1895    0.1914    0.0000 C   0  0  0  0  0  0  0  0  0  0  0  0
    3.1895   -1.2375    0.0000 C   0  0  0  0  0  0  0  0  0  0  0  0
    0.7145   -2.0625    0.0000 C   0  0  0  0  0  0  0  0  0  0  0  0
    1.4289   -2.4750    0.0000 C   0  0  0  0  0  0  0  0  0  0  0  0
    1.4289   -3.3000    0.0000 C   0  0  0  0  0  0  0  0  0  0  0  0
    0.7145   -3.7125    0.0000 C   0  0  0  0  0  0  0  0  0  0  0  0
    0.0000   -3.3000    0.0000 C   0  0  0  0  0  0  0  0  0  0  0  0
    0.0000   -2.4750    0.0000 C   0  0  0  0  0  0  0  0  0  0  0  0
    0.7145   -0.4125    0.0000 C   0  0  0  0  0  0  0  0  0  0  0  0
    0.0000    0.0000    0.0000 C   0  0  0  0  0  0  0  0  0  0  0  0
    0.0000    0.8250    0.0000 C   0  0  0  0  0  0  0  0  0  0  0  0
    0.7145    1.2375    0.0000 C   0  0  0  0  0  0  0  0  0  0  0  0
    1.4289    0.8250    0.0000 C   0  0  0  0  0  0  0  0  0  0  0  0
    1.4289   -0.0000    0.0000 C   0  0  0  0  0  0  0  0  0  0  0  0
  1  2  1  0  0  0  0
  2  3  1  0  0  0  0
  3  4  2  0  0  0  0
  3  5  1  0  0  0  0
  5  6  1  0  0  0  0
  5 12  1  0  0  0  0
  5 18  1  0  0  0  0
  6  7  1  0  0  0  0
  7  8  1  0  0  0  0
  7  9  1  0  0  0  0
  9 10  1  0  0  0  0
  9 11  1  0  0  0  0
 12 13  2  0  0  0  0
 12 17  1  0  0  0  0
 13 14  1  0  0  0  0
 14 15  2  0  0  0  0
 15 16  1  0  0  0  0
 16 17  2  0  0  0  0
 18 19  2  0  0  0  0
 18 23  1  0  0  0  0
 19 20  1  0  0  0  0
 20 21  2  0  0  0  0
 21 22  1  0  0  0  0
 22 23  2  0  0  0  0
M  END
$$$$

 OpenBabel12191814062D

 26 28  0  0  0  0  0  0  0  0999 V2000
    0.7145   -0.4125    0.0000 C   0  0  0  0  0  0  0  0  0  0  0  0
    0.7145   -1.2375    0.0000 C   0  0  0  0  0  0  0  0  0  0  0  0
    1.4289   -1.6500    0.0000 C   0  0  0  0  0  0  0  0  0  0  0  0
    2.1434   -1.2375    0.0000 O   0  0  0  0  0  0  0  0  0  0  0  0
    1.4289   -2.4750    0.0000 C   0  0  0  0  0  0  0  0  0  0  0  0
    2.1434   -2.8875    0.0000 C   0  0  0  0  0  0  0  0  0  0  0  0
    2.1434   -3.7125    0.0000 N   0  0  0  0  0  0  0  0  0  0  0  0
    1.4289   -4.1250    0.0000 C   0  0  0  0  0  0  0  0  0  0  0  0
    0.7145   -3.7125    0.0000 C   0  0  0  0  0  0  0  0  0  0  0  0
    0.7145   -2.8875    0.0000 C   0  0  3  0  0  0  0  0  0  0  0  0
    0.0000   -2.4750    0.0000 C   0  0  0  0  0  0  0  0  0  0  0  0
   -0.7145   -2.8875    0.0000 C   0  0  0  0  0  0  0  0  0  0  0  0
   -1.4289   -2.4750    0.0000 C   0  0  0  0  0  0  0  0  0  0  0  0
   -1.4289   -1.6500    0.0000 C   0  0  0  0  0  0  0  0  0  0  0  0
   -2.1434   -1.2375    0.0000 C   0  0  0  0  0  0  0  0  0  0  0  0
   -0.7145   -1.2375    0.0000 C   0  0  0  0  0  0  0  0  0  0  0  0
    0.0000   -1.6500    0.0000 C   0  0  0  0  0  0  0  0  0  0  0  0
    2.8579   -4.1250    0.0000 C   0  0  0  0  0  0  0  0  0  0  0  0
    2.8579   -4.9500    0.0000 O   0  0  0  0  0  0  0  0  0  0  0  0
    3.5724   -3.7125    0.0000 O   0  0  0  0  0  0  0  0  0  0  0  0
    4.2868   -4.1250    0.0000 C   0  0  0  0  0  0  0  0  0  0  0  0
    5.0013   -3.7125    0.0000 C   0  0  0  0  0  0  0  0  0  0  0  0
    5.7158   -4.1250    0.0000 C   0  0  0  0  0  0  0  0  0  0  0  0
    5.7158   -4.9500    0.0000 C   0  0  0  0  0  0  0  0  0  0  0  0
    5.0013   -5.3625    0.0000 C   0  0  0  0  0  0  0  0  0  0  0  0
    4.2868   -4.9500    0.0000 C   0  0  0  0  0  0  0  0  0  0  0  0
  1  2  1  0  0  0  0
  2  3  1  0  0  0  0
  3  4  2  0  0  0  0
  3  5  1  0  0  0  0
  5  6  2  0  0  0  0
  5 10  1  0  0  0  0
  6  7  1  0  0  0  0
  7  8  1  0  0  0  0
  7 18  1  0  0  0  0
  8  9  2  0  0  0  0
  9 10  1  0  0  0  0
 10 11  1  0  0  0  0
 11 12  2  0  0  0  0
 11 17  1  0  0  0  0
 12 13  1  0  0  0  0
 13 14  2  0  0  0  0
 14 15  1  0  0  0  0
 14 16  1  0  0  0  0
 16 17  2  0  0  0  0
 18 19  2  0  0  0  0
 18 20  1  0  0  0  0
 20 21  1  0  0  0  0
 21 22  2  0  0  0  0
 21 26  1  0  0  0  0
 22 23  1  0  0  0  0
 23 24  2  0  0  0  0
 24 25  1  0  0  0  0
 25 26  2  0  0  0  0
M  END
$$$$

 OpenBabel12191814062D

 27 29  0  0  0  0  0  0  0  0999 V2000
    0.7145   -0.4125    0.0000 C   0  0  0  0  0  0  0  0  0  0  0  0
    0.7145   -1.2375    0.0000 C   0  0  0  0  0  0  0  0  0  0  0  0
    1.4289   -1.6500    0.0000 C   0  0  0  0  0  0  0  0  0  0  0  0
    2.1434   -1.2375    0.0000 O   0  0  0  0  0  0  0  0  0  0  0  0
    1.4289   -2.4750    0.0000 C   0  0  0  0  0  0  0  0  0  0  0  0
    2.1434   -2.8875    0.0000 C   0  0  0  0  0  0  0  0  0  0  0  0
    2.1434   -3.7125    0.0000 N   0  0  0  0  0  0  0  0  0  0  0  0
    1.4289   -4.1250    0.0000 C   0  0  0  0  0  0  0  0  0  0  0  0
    0.7145   -3.7125    0.0000 C   0  0  0  0  0  0  0  0  0  0  0  0
    0.7145   -2.8875    0.0000 C   0  0  3  0  0  0  0  0  0  0  0  0
    0.0000   -2.4750    0.0000 C   0  0  0  0  0  0  0  0  0  0  0  0
   -0.7145   -2.8875    0.0000 C   0  0  0  0  0  0  0  0  0  0  0  0
   -1.4289   -2.4750    0.0000 C   0  0  0  0  0  0  0  0  0  0  0  0
   -1.4289   -1.6500    0.0000 C   0  0  0  0  0  0  0  0  0  0  0  0
   -2.1434   -1.2375    0.0000 O   0  0  0  0  0  0  0  0  0  0  0  0
   -2.1434   -0.4125    0.0000 C   0  0  0  0  0  0  0  0  0  0  0  0
   -0.7145   -1.2375    0.0000 C   0  0  0  0  0  0  0  0  0  0  0  0
    0.0000   -1.6500    0.0000 C   0  0  0  0  0  0  0  0  0  0  0  0
    2.8579   -4.1250    0.0000 C   0  0  0  0  0  0  0  0  0  0  0  0
    2.8579   -4.9500    0.0000 O   0  0  0  0  0  0  0  0  0  0  0  0
    3.5724   -3.7125    0.0000 O   0  0  0  0  0  0  0  0  0  0  0  0
    4.2868   -4.1250    0.0000 C   0  0  0  0  0  0  0  0  0  0  0  0
    5.0013   -3.7125    0.0000 C   0  0  0  0  0  0  0  0  0  0  0  0
    5.7158   -4.1250    0.0000 C   0  0  0  0  0  0  0  0  0  0  0  0
    5.7158   -4.9500    0.0000 C   0  0  0  0  0  0  0  0  0  0  0  0
    5.0013   -5.3625    0.0000 C   0  0  0  0  0  0  0  0  0  0  0  0
    4.2868   -4.9500    0.0000 C   0  0  0  0  0  0  0  0  0  0  0  0
  1  2  1  0  0  0  0
  2  3  1  0  0  0  0
  3  4  2  0  0  0  0
  3  5  1  0  0  0  0
  5  6  2  0  0  0  0
  5 10  1  0  0  0  0
  6  7  1  0  0  0  0
  7  8  1  0  0  0  0
  7 19  1  0  0  0  0
  8  9  2  0  0  0  0
  9 10  1  0  0  0  0
 10 11  1  0  0  0  0
 11 12  2  0  0  0  0
 11 18  1  0  0  0  0
 12 13  1  0  0  0  0
 13 14  2  0  0  0  0
 14 15  1  0  0  0  0
 14 17  1  0  0  0  0
 15 16  1  0  0  0  0
 17 18  2  0  0  0  0
 19 20  2  0  0  0  0
 19 21  1  0  0  0  0
 21 22  1  0  0  0  0
 22 23  2  0  0  0  0
 22 27  1  0  0  0  0
 23 24  1  0  0  0  0
 24 25  2  0  0  0  0
 25 26  1  0  0  0  0
 26 27  2  0  0  0  0
M  END
$$$$

 OpenBabel12191814062D

 27 29  0  0  0  0  0  0  0  0999 V2000
    2.8579   -1.6500    0.0000 C   0  0  0  0  0  0  0  0  0  0  0  0
    2.1434   -1.2375    0.0000 C   0  0  0  0  0  0  0  0  0  0  0  0
    1.4289   -1.6500    0.0000 C   0  0  0  0  0  0  0  0  0  0  0  0
    0.7145   -1.2375    0.0000 O   0  0  0  0  0  0  0  0  0  0  0  0
    1.4289   -2.4750    0.0000 C   0  0  0  0  0  0  0  0  0  0  0  0
    2.1434   -2.8875    0.0000 C   0  0  0  0  0  0  0  0  0  0  0  0
    2.1434   -3.7125    0.0000 N   0  0  0  0  0  0  0  0  0  0  0  0
    1.4289   -4.1250    0.0000 C   0  0  0  0  0  0  0  0  0  0  0  0
    0.7145   -3.7125    0.0000 C   0  0  0  0  0  0  0  0  0  0  0  0
    0.7145   -2.8875    0.0000 C   0  0  3  0  0  0  0  0  0  0  0  0
    0.0000   -2.4750    0.0000 C   0  0  0  0  0  0  0  0  0  0  0  0
    0.0000   -1.6500    0.0000 C   0  0  0  0  0  0  0  0  0  0  0  0
   -0.7145   -1.2375    0.0000 C   0  0  0  0  0  0  0  0  0  0  0  0
   -1.4289   -1.6500    0.0000 C   0  0  0  0  0  0  0  0  0  0  0  0
   -1.4289   -2.4750    0.0000 C   0  0  0  0  0  0  0  0  0  0  0  0
   -0.7145   -2.8875    0.0000 C   0  0  0  0  0  0  0  0  0  0  0  0
   -0.7145   -3.7125    0.0000 O   0  0  0  0  0  0  0  0  0  0  0  0
   -1.4289   -4.1250    0.0000 C   0  0  0  0  0  0  0  0  0  0  0  0
    2.8579   -4.1250    0.0000 C   0  0  0  0  0  0  0  0  0  0  0  0
    2.8579   -4.9500    0.0000 O   0  0  0  0  0  0  0  0  0  0  0  0
    3.5724   -3.7125    0.0000 O   0  0  0  0  0  0  0  0  0  0  0  0
    4.2868   -4.1250    0.0000 C   0  0  0  0  0  0  0  0  0  0  0  0
    5.0013   -3.7125    0.0000 C   0  0  0  0  0  0  0  0  0  0  0  0
    5.7158   -4.1250    0.0000 C   0  0  0  0  0  0  0  0  0  0  0  0
    5.7158   -4.9500    0.0000 C   0  0  0  0  0  0  0  0  0  0  0  0
    5.0013   -5.3625    0.0000 C   0  0  0  0  0  0  0  0  0  0  0  0
    4.2868   -4.9500    0.0000 C   0  0  0  0  0  0  0  0  0  0  0  0
  1  2  1  0  0  0  0
  2  3  1  0  0  0  0
  3  4  2  0  0  0  0
  3  5  1  0  0  0  0
  5  6  2  0  0  0  0
  5 10  1  0  0  0  0
  6  7  1  0  0  0  0
  7  8  1  0  0  0  0
  7 19  1  0  0  0  0
  8  9  2  0  0  0  0
  9 10  1  0  0  0  0
 10 11  1  0  0  0  0
 11 12  2  0  0  0  0
 11 16  1  0  0  0  0
 12 13  1  0  0  0  0
 13 14  2  0  0  0  0
 14 15  1  0  0  0  0
 15 16  2  0  0  0  0
 16 17  1  0  0  0  0
 17 18  1  0  0  0  0
 19 20  2  0  0  0  0
 19 21  1  0  0  0  0
 21 22  1  0  0  0  0
 22 23  2  0  0  0  0
 22 27  1  0  0  0  0
 23 24  1  0  0  0  0
 24 25  2  0  0  0  0
 25 26  1  0  0  0  0
 26 27  2  0  0  0  0
M  END
$$$$

 OpenBabel12191814062D

 30 33  0  0  0  0  0  0  0  0999 V2000
   -0.7145   -2.8875    0.0000 C   0  0  0  0  0  0  0  0  0  0  0  0
    0.0000   -2.4750    0.0000 C   0  0  0  0  0  0  0  0  0  0  0  0
    0.7145   -2.8875    0.0000 C   0  0  0  0  0  0  0  0  0  0  0  0
    0.7145   -3.7125    0.0000 O   0  0  0  0  0  0  0  0  0  0  0  0
    1.4289   -2.4750    0.0000 C   0  0  0  0  0  0  0  0  0  0  0  0
    1.4289   -1.6500    0.0000 C   0  0  0  0  0  0  0  0  0  0  0  0
    2.1434   -1.2375    0.0000 C   0  0  0  0  0  0  0  0  0  0  0  0
    2.8579   -1.6500    0.0000 C   0  0  0  0  0  0  0  0  0  0  0  0
    3.5724   -1.2375    0.0000 S   0  0  0  0  0  0  0  0  0  0  0  0
    4.2868   -1.6500    0.0000 C   0  0  0  0  0  0  0  0  0  0  0  0
    5.0013   -1.2375    0.0000 C   0  0  0  0  0  0  0  0  0  0  0  0
    5.7158   -1.6500    0.0000 C   0  0  0  0  0  0  0  0  0  0  0  0
    5.7158   -2.4750    0.0000 C   0  0  0  0  0  0  0  0  0  0  0  0
    5.0013   -2.8875    0.0000 C   0  0  0  0  0  0  0  0  0  0  0  0
    4.2868   -2.4750    0.0000 C   0  0  0  0  0  0  0  0  0  0  0  0
    3.5724   -2.8875    0.0000 N   0  0  0  0  0  0  0  0  0  0  0  0
    3.5724   -3.7125    0.0000 C   0  0  0  0  0  0  0  0  0  0  0  0
    4.2868   -4.1250    0.0000 C   0  0  0  0  0  0  0  0  0  0  0  0
    5.0013   -3.7125    0.0000 C   0  0  0  0  0  0  0  0  0  0  0  0
    5.7158   -4.1250    0.0000 N   0  0  0  0  0  0  0  0  0  0  0  0
    6.4302   -3.7125    0.0000 C   0  0  0  0  0  0  0  0  0  0  0  0
    7.1447   -4.1250    0.0000 C   0  0  0  0  0  0  0  0  0  0  0  0
    7.1447   -4.9500    0.0000 N   0  0  0  0  0  0  0  0  0  0  0  0
    7.8592   -5.3625    0.0000 C   0  0  0  0  0  0  0  0  0  0  0  0
    7.8592   -6.1875    0.0000 C   0  0  0  0  0  0  0  0  0  0  0  0
    8.5737   -6.6000    0.0000 O   0  0  0  0  0  0  0  0  0  0  0  0
    6.4302   -5.3625    0.0000 C   0  0  0  0  0  0  0  0  0  0  0  0
    5.7158   -4.9500    0.0000 C   0  0  0  0  0  0  0  0  0  0  0  0
    2.8579   -2.4750    0.0000 C   0  0  0  0  0  0  0  0  0  0  0  0
    2.1434   -2.8875    0.0000 C   0  0  0  0  0  0  0  0  0  0  0  0
  1  2  1  0  0  0  0
  2  3  1  0  0  0  0
  3  4  2  0  0  0  0
  3  5  1  0  0  0  0
  5  6  2  0  0  0  0
  5 30  1  0  0  0  0
  6  7  1  0  0  0  0
  7  8  2  0  0  0  0
  8  9  1  0  0  0  0
  8 29  1  0  0  0  0
  9 10  1  0  0  0  0
 10 11  2  0  0  0  0
 10 15  1  0  0  0  0
 11 12  1  0  0  0  0
 12 13  2  0  0  0  0
 13 14  1  0  0  0  0
 14 15  2  0  0  0  0
 15 16  1  0  0  0  0
 16 17  1  0  0  0  0
 16 29  1  0  0  0  0
 17 18  1  0  0  0  0
 18 19  1  0  0  0  0
 19 20  1  0  0  0  0
 20 21  1  0  0  0  0
 20 28  1  0  0  0  0
 21 22  1  0  0  0  0
 22 23  1  0  0  0  0
 23 24  1  0  0  0  0
 23 27  1  0  0  0  0
 24 25  1  0  0  0  0
 25 26  1  0  0  0  0
 27 28  1  0  0  0  0
 29 30  2  0  0  0  0
M  END
$$$$

 OpenBabel12191814062D

 28 30  0  0  0  0  0  0  0  0999 V2000
   -1.6471   -6.5270    0.0000 C   0  0  0  0  0  0  0  0  0  0  0  0
   -1.6471   -5.7020    0.0000 C   0  0  0  0  0  0  0  0  0  0  0  0
   -0.9327   -5.2895    0.0000 C   0  0  0  0  0  0  0  0  0  0  0  0
   -0.2182   -5.7020    0.0000 O   0  0  0  0  0  0  0  0  0  0  0  0
   -0.9327   -4.4645    0.0000 C   0  0  0  0  0  0  0  0  0  0  0  0
   -1.6471   -4.0520    0.0000 C   0  0  0  0  0  0  0  0  0  0  0  0
   -1.6471   -3.2270    0.0000 C   0  0  0  0  0  0  0  0  0  0  0  0
   -0.9327   -2.8145    0.0000 C   0  0  0  0  0  0  0  0  0  0  0  0
   -0.2182   -3.2270    0.0000 C   0  0  0  0  0  0  0  0  0  0  0  0
   -0.2182   -4.0520    0.0000 C   0  0  0  0  0  0  0  0  0  0  0  0
    0.4963   -4.4645    0.0000 O   0  0  0  0  0  0  0  0  0  0  0  0
    1.2107   -4.0520    0.0000 C   0  0  0  0  0  0  0  0  0  0  0  0
    1.9252   -4.4645    0.0000 C   0  0  3  0  0  0  0  0  0  0  0  0
    1.9252   -5.2895    0.0000 O   0  0  0  0  0  0  0  0  0  0  0  0
    2.6397   -4.0520    0.0000 C   0  0  0  0  0  0  0  0  0  0  0  0
    2.6397   -3.2270    0.0000 N   0  0  0  0  0  0  0  0  0  0  0  0
    1.9252   -2.8145    0.0000 C   0  0  0  0  0  0  0  0  0  0  0  0
    1.9252   -1.9895    0.0000 C   0  0  0  0  0  0  0  0  0  0  0  0
    2.6397   -1.5770    0.0000 C   0  0  3  0  0  0  0  0  0  0  0  0
    2.1094   -0.9450    0.0000 O   0  0  0  0  0  0  0  0  0  0  0  0
    3.3542   -1.9895    0.0000 C   0  0  0  0  0  0  0  0  0  0  0  0
    3.3542   -2.8145    0.0000 C   0  0  0  0  0  0  0  0  0  0  0  0
    3.1700   -0.9450    0.0000 C   0  0  0  0  0  0  0  0  0  0  0  0
    2.8878   -0.1697    0.0000 C   0  0  0  0  0  0  0  0  0  0  0  0
    3.4181    0.4623    0.0000 C   0  0  0  0  0  0  0  0  0  0  0  0
    4.2306    0.3190    0.0000 C   0  0  0  0  0  0  0  0  0  0  0  0
    4.5127   -0.4563    0.0000 C   0  0  0  0  0  0  0  0  0  0  0  0
    3.9824   -1.0882    0.0000 C   0  0  0  0  0  0  0  0  0  0  0  0
  1  2  1  0  0  0  0
  2  3  1  0  0  0  0
  3  4  2  0  0  0  0
  3  5  1  0  0  0  0
  5  6  2  0  0  0  0
  5 10  1  0  0  0  0
  6  7  1  0  0  0  0
  7  8  2  0  0  0  0
  8  9  1  0  0  0  0
  9 10  2  0  0  0  0
 10 11  1  0  0  0  0
 11 12  1  0  0  0  0
 12 13  1  0  0  0  0
 13 14  1  0  0  0  0
 13 15  1  0  0  0  0
 15 16  1  0  0  0  0
 16 17  1  0  0  0  0
 16 22  1  0  0  0  0
 17 18  1  0  0  0  0
 18 19  1  0  0  0  0
 19 20  1  0  0  0  0
 19 21  1  0  0  0  0
 19 23  1  0  0  0  0
 21 22  1  0  0  0  0
 23 24  2  0  0  0  0
 23 28  1  0  0  0  0
 24 25  1  0  0  0  0
 25 26  2  0  0  0  0
 26 27  1  0  0  0  0
 27 28  2  0  0  0  0
M  END
$$$$

 OpenBabel12191814062D

 21 22  0  0  0  0  0  0  0  0999 V2000
   -1.4289   -4.9500    0.0000 C   0  0  0  0  0  0  0  0  0  0  0  0
   -1.4289   -4.1250    0.0000 C   0  0  0  0  0  0  0  0  0  0  0  0
   -0.7145   -3.7125    0.0000 C   0  0  0  0  0  0  0  0  0  0  0  0
    0.0000   -4.1250    0.0000 O   0  0  0  0  0  0  0  0  0  0  0  0
   -0.7145   -2.8875    0.0000 C   0  0  0  0  0  0  0  0  0  0  0  0
   -1.4289   -2.4750    0.0000 C   0  0  0  0  0  0  0  0  0  0  0  0
   -1.4289   -1.6500    0.0000 C   0  0  0  0  0  0  0  0  0  0  0  0
   -0.7145   -1.2375    0.0000 C   0  0  0  0  0  0  0  0  0  0  0  0
    0.0000   -1.6500    0.0000 C   0  0  0  0  0  0  0  0  0  0  0  0
    0.0000   -2.4750    0.0000 C   0  0  0  0  0  0  0  0  0  0  0  0
    0.7145   -2.8875    0.0000 O   0  0  0  0  0  0  0  0  0  0  0  0
    1.4289   -2.4750    0.0000 C   0  0  0  0  0  0  0  0  0  0  0  0
    2.1434   -2.8875    0.0000 C   0  0  3  0  0  0  0  0  0  0  0  0
    2.1434   -3.7125    0.0000 O   0  0  0  0  0  0  0  0  0  0  0  0
    2.8579   -2.4750    0.0000 C   0  0  0  0  0  0  0  0  0  0  0  0
    3.5724   -2.8875    0.0000 N   0  0  0  0  0  0  0  0  0  0  0  0
    4.2868   -2.4750    0.0000 C   0  0  0  0  0  0  0  0  0  0  0  0
    5.0013   -2.8875    0.0000 C   0  0  0  0  0  0  0  0  0  0  0  0
    5.0013   -3.7125    0.0000 C   0  0  0  0  0  0  0  0  0  0  0  0
    4.2868   -4.1250    0.0000 C   0  0  0  0  0  0  0  0  0  0  0  0
    3.5724   -3.7125    0.0000 C   0  0  0  0  0  0  0  0  0  0  0  0
  1  2  1  0  0  0  0
  2  3  1  0  0  0  0
  3  4  2  0  0  0  0
  3  5  1  0  0  0  0
  5  6  2  0  0  0  0
  5 10  1  0  0  0  0
  6  7  1  0  0  0  0
  7  8  2  0  0  0  0
  8  9  1  0  0  0  0
  9 10  2  0  0  0  0
 10 11  1  0  0  0  0
 11 12  1  0  0  0  0
 12 13  1  0  0  0  0
 13 14  1  0  0  0  0
 13 15  1  0  0  0  0
 15 16  1  0  0  0  0
 16 17  1  0  0  0  0
 16 21  1  0  0  0  0
 17 18  1  0  0  0  0
 18 19  1  0  0  0  0
 19 20  1  0  0  0  0
 20 21  1  0  0  0  0
M  END
$$$$

 OpenBabel12191814062D

 44 48  0  0  0  0  0  0  0  0999 V2000
    1.4289   -9.0750    0.0000 C   0  0  0  0  0  0  0  0  0  0  0  0
    0.7145   -8.6625    0.0000 C   0  0  0  0  0  0  0  0  0  0  0  0
    0.0000   -9.0750    0.0000 C   0  0  0  0  0  0  0  0  0  0  0  0
    0.0000   -9.9000    0.0000 O   0  0  0  0  0  0  0  0  0  0  0  0
   -0.7145   -8.6625    0.0000 C   0  0  0  0  0  0  0  0  0  0  0  0
   -1.4289   -9.0750    0.0000 C   0  0  0  0  0  0  0  0  0  0  0  0
   -2.1434   -8.6625    0.0000 N   0  0  0  0  0  0  0  0  0  0  0  0
   -2.1434   -7.8375    0.0000 C   0  0  0  0  0  0  0  0  0  0  0  0
   -1.4289   -7.4250    0.0000 C   0  0  0  0  0  0  0  0  0  0  0  0
   -0.7145   -7.8375    0.0000 N   0  0  0  0  0  0  0  0  0  0  0  0
   -2.8579   -7.4250    0.0000 C   0  0  0  0  0  0  0  0  0  0  0  0
   -3.5724   -7.8375    0.0000 O   0  0  0  0  0  0  0  0  0  0  0  0
   -2.8579   -6.6000    0.0000 N   0  0  0  0  0  0  0  0  0  0  0  0
   -3.5724   -6.1875    0.0000 C   0  0  0  0  0  0  0  0  0  0  0  0
   -4.2868   -6.6000    0.0000 C   0  0  0  0  0  0  0  0  0  0  0  0
   -5.0013   -6.1875    0.0000 C   0  0  0  0  0  0  0  0  0  0  0  0
   -5.0013   -5.3625    0.0000 C   0  0  0  0  0  0  0  0  0  0  0  0
   -4.2868   -4.9500    0.0000 C   0  0  0  0  0  0  0  0  0  0  0  0
   -3.5724   -5.3625    0.0000 C   0  0  0  0  0  0  0  0  0  0  0  0
   -2.8579   -4.9500    0.0000 C   0  0  0  0  0  0  0  0  0  0  0  0
   -2.1434   -5.3625    0.0000 O   0  0  0  0  0  0  0  0  0  0  0  0
   -2.8579   -4.1250    0.0000 N   0  0  0  0  0  0  0  0  0  0  0  0
   -2.1434   -3.7125    0.0000 C   0  0  0  0  0  0  0  0  0  0  0  0
   -2.1434   -2.8875    0.0000 C   0  0  0  0  0  0  0  0  0  0  0  0
   -1.4289   -2.4750    0.0000 C   0  0  0  0  0  0  0  0  0  0  0  0
   -0.7145   -2.8875    0.0000 C   0  0  0  0  0  0  0  0  0  0  0  0
    0.0000   -2.4750    0.0000 C   0  0  0  0  0  0  0  0  0  0  0  0
    0.0000   -1.6500    0.0000 C   0  0  0  0  0  0  0  0  0  0  0  0
    0.7145   -1.2375    0.0000 N   0  0  0  0  0  0  0  0  0  0  0  0
    0.7145   -0.4125    0.0000 C   0  0  0  0  0  0  0  0  0  0  0  0
    1.4289    0.0000    0.0000 C   0  0  0  0  0  0  0  0  0  0  0  0
    2.1434   -0.4125    0.0000 C   0  0  0  0  0  0  0  0  0  0  0  0
    2.8579    0.0000    0.0000 C   0  0  0  0  0  0  0  0  0  0  0  0
    3.5724   -0.4125    0.0000 C   0  0  0  0  0  0  0  0  0  0  0  0
    4.2868   -0.0000    0.0000 O   0  0  0  0  0  0  0  0  0  0  0  0
    4.2868    0.8250    0.0000 C   0  0  0  0  0  0  0  0  0  0  0  0
    3.5724   -1.2375    0.0000 C   0  0  0  0  0  0  0  0  0  0  0  0
    4.2868   -1.6500    0.0000 O   0  0  0  0  0  0  0  0  0  0  0  0
    4.2868   -2.4750    0.0000 C   0  0  0  0  0  0  0  0  0  0  0  0
    2.8579   -1.6500    0.0000 C   0  0  0  0  0  0  0  0  0  0  0  0
    2.1434   -1.2375    0.0000 C   0  0  0  0  0  0  0  0  0  0  0  0
    1.4289   -1.6500    0.0000 C   0  0  0  0  0  0  0  0  0  0  0  0
   -0.7145   -3.7125    0.0000 C   0  0  0  0  0  0  0  0  0  0  0  0
   -1.4289   -4.1250    0.0000 C   0  0  0  0  0  0  0  0  0  0  0  0
  1  2  1  0  0  0  0
  2  3  1  0  0  0  0
  3  4  2  0  0  0  0
  3  5  1  0  0  0  0
  5  6  2  0  0  0  0
  5 10  1  0  0  0  0
  6  7  1  0  0  0  0
  7  8  2  0  0  0  0
  8  9  1  0  0  0  0
  8 11  1  0  0  0  0
  9 10  2  0  0  0  0
 11 12  2  0  0  0  0
 11 13  1  0  0  0  0
 13 14  1  0  0  0  0
 14 15  2  0  0  0  0
 14 19  1  0  0  0  0
 15 16  1  0  0  0  0
 16 17  2  0  0  0  0
 17 18  1  0  0  0  0
 18 19  2  0  0  0  0
 19 20  1  0  0  0  0
 20 21  2  0  0  0  0
 20 22  1  0  0  0  0
 22 23  1  0  0  0  0
 23 24  2  0  0  0  0
 23 44  1  0  0  0  0
 24 25  1  0  0  0  0
 25 26  2  0  0  0  0
 26 27  1  0  0  0  0
 26 43  1  0  0  0  0
 27 28  1  0  0  0  0
 28 29  1  0  0  0  0
 29 30  1  0  0  0  0
 29 42  1  0  0  0  0
 30 31  1  0  0  0  0
 31 32  1  0  0  0  0
 32 33  2  0  0  0  0
 32 41  1  0  0  0  0
 33 34  1  0  0  0  0
 34 35  1  0  0  0  0
 34 37  2  0  0  0  0
 35 36  1  0  0  0  0
 37 38  1  0  0  0  0
 37 40  1  0  0  0  0
 38 39  1  0  0  0  0
 40 41  2  0  0  0  0
 41 42  1  0  0  0  0
 43 44  2  0  0  0  0
M  END
$$$$

 OpenBabel12191814062D

 27 29  0  0  0  0  0  0  0  0999 V2000
    0.8764   10.3120    0.0000 C   0  0  0  0  0  0  0  0  0  0  0  0
    1.1586    9.5368    0.0000 C   0  0  0  0  0  0  0  0  0  0  0  0
    0.6283    8.9048    0.0000 C   0  0  0  0  0  0  0  0  0  0  0  0
    0.9105    8.1296    0.0000 O   0  0  0  0  0  0  0  0  0  0  0  0
   -0.1842    9.0481    0.0000 N   0  0  0  0  0  0  0  0  0  0  0  0
   -0.4663    9.8233    0.0000 C   0  0  0  0  0  0  0  0  0  0  0  0
   -1.2788    9.9666    0.0000 C   0  0  0  0  0  0  0  0  0  0  0  0
   -1.5610   10.7418    0.0000 C   0  0  0  0  0  0  0  0  0  0  0  0
   -1.0307   11.3738    0.0000 C   0  0  0  0  0  0  0  0  0  0  0  0
   -0.2182   11.2305    0.0000 C   0  0  0  0  0  0  0  0  0  0  0  0
    0.0640   10.4553    0.0000 C   0  0  0  0  0  0  0  0  0  0  0  0
   -0.7145    8.4161    0.0000 C   0  0  0  0  0  0  0  0  0  0  0  0
   -1.2448    9.0481    0.0000 C   0  0  0  0  0  0  0  0  0  0  0  0
   -2.0572    8.9048    0.0000 O   0  0  0  0  0  0  0  0  0  0  0  0
   -2.5875    9.5368    0.0000 C   0  0  0  0  0  0  0  0  0  0  0  0
   -0.0000    8.0036    0.0000 C   0  0  0  0  0  0  0  0  0  0  0  0
   -0.0000    7.1786    0.0000 C   0  0  0  0  0  0  0  0  0  0  0  0
   -0.7145    6.7661    0.0000 N   0  0  0  0  0  0  0  0  0  0  0  0
   -0.7145    5.9411    0.0000 C   0  0  0  0  0  0  0  0  0  0  0  0
   -0.0000    5.5286    0.0000 C   0  0  0  0  0  0  0  0  0  0  0  0
   -0.0000    4.7036    0.0000 C   0  0  0  0  0  0  0  0  0  0  0  0
    0.6674    4.2187    0.0000 C   0  0  0  0  0  0  0  0  0  0  0  0
    0.4125    3.4340    0.0000 C   0  0  0  0  0  0  0  0  0  0  0  0
   -0.4125    3.4340    0.0000 C   0  0  0  0  0  0  0  0  0  0  0  0
   -0.6674    4.2187    0.0000 S   0  0  0  0  0  0  0  0  0  0  0  0
   -1.4289    7.1786    0.0000 C   0  0  0  0  0  0  0  0  0  0  0  0
   -1.4289    8.0036    0.0000 C   0  0  0  0  0  0  0  0  0  0  0  0
  1  2  1  0  0  0  0
  2  3  1  0  0  0  0
  3  4  2  0  0  0  0
  3  5  1  0  0  0  0
  5  6  1  0  0  0  0
  5 12  1  0  0  0  0
  6  7  2  0  0  0  0
  6 11  1  0  0  0  0
  7  8  1  0  0  0  0
  8  9  2  0  0  0  0
  9 10  1  0  0  0  0
 10 11  2  0  0  0  0
 12 13  1  0  0  0  0
 12 16  1  0  0  0  0
 12 27  1  0  0  0  0
 13 14  1  0  0  0  0
 14 15  1  0  0  0  0
 16 17  1  0  0  0  0
 17 18  1  0  0  0  0
 18 19  1  0  0  0  0
 18 26  1  0  0  0  0
 19 20  1  0  0  0  0
 20 21  1  0  0  0  0
 21 22  2  0  0  0  0
 21 25  1  0  0  0  0
 22 23  1  0  0  0  0
 23 24  2  0  0  0  0
 24 25  1  0  0  0  0
 26 27  1  0  0  0  0
M  END
$$$$

 OpenBabel12191814062D

 25 27  0  0  0  0  0  0  0  0999 V2000
    0.7145   -1.2375    0.0000 C   0  0  0  0  0  0  0  0  0  0  0  0
    0.7145   -0.4125    0.0000 C   0  0  0  0  0  0  0  0  0  0  0  0
    1.4289    0.0000    0.0000 C   0  0  0  0  0  0  0  0  0  0  0  0
    1.4289    0.8250    0.0000 O   0  0  0  0  0  0  0  0  0  0  0  0
    2.1434   -0.4125    0.0000 N   0  0  0  0  0  0  0  0  0  0  0  0
    2.1434   -1.2375    0.0000 C   0  0  0  0  0  0  0  0  0  0  0  0
    2.8579   -1.6500    0.0000 C   0  0  0  0  0  0  0  0  0  0  0  0
    2.8579   -2.4750    0.0000 C   0  0  0  0  0  0  0  0  0  0  0  0
    2.1434   -2.8875    0.0000 N   0  0  0  0  0  0  0  0  0  0  0  0
    2.1434   -3.7125    0.0000 C   0  0  0  0  0  0  0  0  0  0  0  0
    1.4289   -4.1250    0.0000 C   0  0  0  0  0  0  0  0  0  0  0  0
    1.4289   -4.9500    0.0000 C   0  0  0  0  0  0  0  0  0  0  0  0
    2.1434   -5.3625    0.0000 C   0  0  0  0  0  0  0  0  0  0  0  0
    2.1434   -6.1875    0.0000 C   0  0  0  0  0  0  0  0  0  0  0  0
    1.4289   -6.6000    0.0000 C   0  0  0  0  0  0  0  0  0  0  0  0
    0.7145   -6.1875    0.0000 C   0  0  0  0  0  0  0  0  0  0  0  0
    0.7145   -5.3625    0.0000 C   0  0  0  0  0  0  0  0  0  0  0  0
    1.4289   -2.4750    0.0000 C   0  0  0  0  0  0  0  0  0  0  0  0
    1.4289   -1.6500    0.0000 C   0  0  0  0  0  0  0  0  0  0  0  0
    2.8579    0.0000    0.0000 C   0  0  0  0  0  0  0  0  0  0  0  0
    2.8579    0.8250    0.0000 C   0  0  0  0  0  0  0  0  0  0  0  0
    3.5724    1.2375    0.0000 C   0  0  0  0  0  0  0  0  0  0  0  0
    4.2868    0.8250    0.0000 C   0  0  0  0  0  0  0  0  0  0  0  0
    4.2868    0.0000    0.0000 C   0  0  0  0  0  0  0  0  0  0  0  0
    3.5724   -0.4125    0.0000 C   0  0  0  0  0  0  0  0  0  0  0  0
  1  2  1  0  0  0  0
  2  3  1  0  0  0  0
  3  4  2  0  0  0  0
  3  5  1  0  0  0  0
  5  6  1  0  0  0  0
  5 20  1  0  0  0  0
  6  7  1  0  0  0  0
  6 19  1  0  0  0  0
  7  8  1  0  0  0  0
  8  9  1  0  0  0  0
  9 10  1  0  0  0  0
  9 18  1  0  0  0  0
 10 11  1  0  0  0  0
 11 12  1  0  0  0  0
 12 13  2  0  0  0  0
 12 17  1  0  0  0  0
 13 14  1  0  0  0  0
 14 15  2  0  0  0  0
 15 16  1  0  0  0  0
 16 17  2  0  0  0  0
 18 19  1  0  0  0  0
 20 21  2  0  0  0  0
 20 25  1  0  0  0  0
 21 22  1  0  0  0  0
 22 23  2  0  0  0  0
 23 24  1  0  0  0  0
 24 25  2  0  0  0  0
M  END
$$$$

 OpenBabel12191814062D

 32 34  0  0  0  0  0  0  0  0999 V2000
   -0.4125   -3.1895    0.0000 C   0  0  0  0  0  0  0  0  0  0  0  0
    0.0000   -2.4750    0.0000 C   0  0  0  0  0  0  0  0  0  0  0  0
   -0.4125   -1.7605    0.0000 C   0  0  0  0  0  0  0  0  0  0  0  0
   -1.2375   -1.7605    0.0000 O   0  0  0  0  0  0  0  0  0  0  0  0
    0.0000   -1.0461    0.0000 N   0  0  0  0  0  0  0  0  0  0  0  0
    0.8250   -1.0461    0.0000 C   0  0  0  0  0  0  0  0  0  0  0  0
    1.2375   -1.7605    0.0000 C   0  0  3  0  0  0  0  0  0  0  0  0
    0.8250   -2.4750    0.0000 O   0  0  0  0  0  0  0  0  0  0  0  0
    2.0625   -1.7605    0.0000 C   0  0  0  0  0  0  0  0  0  0  0  0
    2.4750   -2.4750    0.0000 O   0  0  0  0  0  0  0  0  0  0  0  0
    3.3000   -2.4750    0.0000 C   0  0  0  0  0  0  0  0  0  0  0  0
    3.7125   -1.7605    0.0000 C   0  0  0  0  0  0  0  0  0  0  0  0
    4.5375   -1.7605    0.0000 C   0  0  0  0  0  0  0  0  0  0  0  0
    4.9500   -2.4750    0.0000 C   0  0  0  0  0  0  0  0  0  0  0  0
    4.5375   -3.1895    0.0000 C   0  0  0  0  0  0  0  0  0  0  0  0
    3.7125   -3.1895    0.0000 C   0  0  0  0  0  0  0  0  0  0  0  0
    3.3000   -3.9039    0.0000 C   0  0  0  0  0  0  0  0  0  0  0  0
    2.4750   -3.9039    0.0000 O   0  0  0  0  0  0  0  0  0  0  0  0
    3.7125   -4.6184    0.0000 C   0  0  0  0  0  0  0  0  0  0  0  0
    3.3000   -5.3329    0.0000 C   0  0  0  0  0  0  0  0  0  0  0  0
    3.7125   -6.0474    0.0000 C   0  0  0  0  0  0  0  0  0  0  0  0
    4.5375   -6.0474    0.0000 C   0  0  0  0  0  0  0  0  0  0  0  0
    4.9500   -6.7618    0.0000 C   0  0  0  0  0  0  0  0  0  0  0  0
    4.5375   -7.4763    0.0000 C   0  0  0  0  0  0  0  0  0  0  0  0
    3.7125   -7.4763    0.0000 C   0  0  0  0  0  0  0  0  0  0  0  0
    3.3000   -6.7618    0.0000 C   0  0  0  0  0  0  0  0  0  0  0  0
   -0.4125   -0.3316    0.0000 C   0  0  0  0  0  0  0  0  0  0  0  0
   -1.2375   -0.3316    0.0000 C   0  0  0  0  0  0  0  0  0  0  0  0
   -1.6500    0.3829    0.0000 C   0  0  0  0  0  0  0  0  0  0  0  0
   -1.2375    1.0974    0.0000 C   0  0  0  0  0  0  0  0  0  0  0  0
   -0.4125    1.0974    0.0000 C   0  0  0  0  0  0  0  0  0  0  0  0
    0.0000    0.3829    0.0000 C   0  0  0  0  0  0  0  0  0  0  0  0
  1  2  1  0  0  0  0
  2  3  1  0  0  0  0
  3  4  2  0  0  0  0
  3  5  1  0  0  0  0
  5  6  1  0  0  0  0
  5 27  1  0  0  0  0
  6  7  1  0  0  0  0
  7  8  1  0  0  0  0
  7  9  1  0  0  0  0
  9 10  1  0  0  0  0
 10 11  1  0  0  0  0
 11 12  2  0  0  0  0
 11 16  1  0  0  0  0
 12 13  1  0  0  0  0
 13 14  2  0  0  0  0
 14 15  1  0  0  0  0
 15 16  2  0  0  0  0
 16 17  1  0  0  0  0
 17 18  2  0  0  0  0
 17 19  1  0  0  0  0
 19 20  1  0  0  0  0
 20 21  1  0  0  0  0
 21 22  2  0  0  0  0
 21 26  1  0  0  0  0
 22 23  1  0  0  0  0
 23 24  2  0  0  0  0
 24 25  1  0  0  0  0
 25 26  2  0  0  0  0
 27 28  2  0  0  0  0
 27 32  1  0  0  0  0
 28 29  1  0  0  0  0
 29 30  2  0  0  0  0
 30 31  1  0  0  0  0
 31 32  2  0  0  0  0
M  END
$$$$

 OpenBabel12191814062D

 25 26  0  0  0  0  0  0  0  0999 V2000
   -0.4934    0.6336    0.0000 C   0  0  0  0  0  0  0  0  0  0  0  0
   -0.4934   -0.1914    0.0000 C   0  0  0  0  0  0  0  0  0  0  0  0
    0.2211   -0.6039    0.0000 C   0  0  0  0  0  0  0  0  0  0  0  0
   -0.0339   -1.3886    0.0000 O   0  0  0  0  0  0  0  0  0  0  0  0
    0.9355   -0.1914    0.0000 O   0  0  0  0  0  0  0  0  0  0  0  0
    1.6500   -0.6039    0.0000 C   0  0  3  0  0  0  0  0  0  0  0  0
    2.3645   -1.0164    0.0000 C   0  0  0  0  0  0  0  0  0  0  0  0
    2.3645   -1.8414    0.0000 C   0  0  0  0  0  0  0  0  0  0  0  0
    3.0789   -2.2539    0.0000 C   0  0  0  0  0  0  0  0  0  0  0  0
    3.0789   -3.0789    0.0000 C   0  0  0  0  0  0  0  0  0  0  0  0
    2.3645   -3.4914    0.0000 C   0  0  0  0  0  0  0  0  0  0  0  0
    1.6500   -3.0789    0.0000 C   0  0  0  0  0  0  0  0  0  0  0  0
    1.6500   -2.2539    0.0000 C   0  0  0  0  0  0  0  0  0  0  0  0
    1.2375   -1.3184    0.0000 C   0  0  3  0  0  0  0  0  0  0  0  0
    1.1513   -2.1389    0.0000 C   0  0  0  0  0  0  0  0  0  0  0  0
    0.4125   -1.3184    0.0000 C   0  0  0  0  0  0  0  0  0  0  0  0
    0.0000   -2.0329    0.0000 N   0  0  0  0  0  0  0  0  0  0  0  0
   -0.8250   -2.0329    0.0000 C   0  0  0  0  0  0  0  0  0  0  0  0
    0.4125   -2.7474    0.0000 C   0  0  0  0  0  0  0  0  0  0  0  0
    2.0625    0.1105    0.0000 C   0  0  0  0  0  0  0  0  0  0  0  0
    1.6500    0.8250    0.0000 C   0  0  0  0  0  0  0  0  0  0  0  0
    2.0625    1.5395    0.0000 C   0  0  0  0  0  0  0  0  0  0  0  0
    2.8875    1.5395    0.0000 C   0  0  0  0  0  0  0  0  0  0  0  0
    3.3000    0.8250    0.0000 C   0  0  0  0  0  0  0  0  0  0  0  0
    2.8875    0.1105    0.0000 C   0  0  0  0  0  0  0  0  0  0  0  0
  1  2  1  0  0  0  0
  2  3  1  0  0  0  0
  3  4  2  0  0  0  0
  3  5  1  0  0  0  0
  5  6  1  0  0  0  0
  6  7  1  0  0  0  0
  6 14  1  0  0  0  0
  6 20  1  0  0  0  0
  7  8  1  0  0  0  0
  8  9  2  0  0  0  0
  8 13  1  0  0  0  0
  9 10  1  0  0  0  0
 10 11  2  0  0  0  0
 11 12  1  0  0  0  0
 12 13  2  0  0  0  0
 14 15  1  0  0  0  0
 14 16  1  0  0  0  0
 16 17  1  0  0  0  0
 17 18  1  0  0  0  0
 17 19  1  0  0  0  0
 20 21  2  0  0  0  0
 20 25  1  0  0  0  0
 21 22  1  0  0  0  0
 22 23  2  0  0  0  0
 23 24  1  0  0  0  0
 24 25  2  0  0  0  0
M  END
$$$$

 OpenBabel12191814062D

 36 38  0  0  0  0  0  0  0  0999 V2000
    1.5077  -14.4410    0.0000 C   0  0  0  0  0  0  0  0  0  0  0  0
    1.2376  -13.6614    0.0000 C   0  0  0  0  0  0  0  0  0  0  0  0
    0.4275  -13.5055    0.0000 C   0  0  3  0  0  0  0  0  0  0  0  0
    0.1574  -12.7260    0.0000 C   0  0  0  0  0  0  0  0  0  0  0  0
   -0.6527  -12.5700    0.0000 O   0  0  0  0  0  0  0  0  0  0  0  0
    0.6975  -12.1023    0.0000 N   0  0  0  0  0  0  0  0  0  0  0  0
    0.4275  -11.3228    0.0000 C   0  0  0  0  0  0  0  0  0  0  0  0
    0.9676  -10.6991    0.0000 C   0  0  0  0  0  0  0  0  0  0  0  0
    0.6975   -9.9196    0.0000 C   0  0  0  0  0  0  0  0  0  0  0  0
    1.2376   -9.2959    0.0000 N   0  0  0  0  0  0  0  0  0  0  0  0
    0.9676   -8.5164    0.0000 C   0  0  0  0  0  0  0  0  0  0  0  0
    1.5077   -7.8927    0.0000 C   0  0  0  0  0  0  0  0  0  0  0  0
    2.3178   -8.0486    0.0000 N   0  0  0  0  0  0  0  0  0  0  0  0
    2.8579   -7.4250    0.0000 C   0  0  0  0  0  0  0  0  0  0  0  0
    3.6680   -7.5809    0.0000 C   0  0  0  0  0  0  0  0  0  0  0  0
    4.2081   -6.9573    0.0000 C   0  0  0  0  0  0  0  0  0  0  0  0
    5.0182   -7.1132    0.0000 N   0  0  0  0  0  0  0  0  0  0  0  0
    5.5583   -6.4895    0.0000 C   0  0  0  0  0  0  0  0  0  0  0  0
    5.2883   -5.7100    0.0000 O   0  0  0  0  0  0  0  0  0  0  0  0
    6.3685   -6.6454    0.0000 C   0  0  3  0  0  0  0  0  0  0  0  0
    6.6385   -7.4250    0.0000 C   0  0  0  0  0  0  0  0  0  0  0  0
    6.0984   -8.0486    0.0000 C   0  0  0  0  0  0  0  0  0  0  0  0
    6.9086   -6.0218    0.0000 C   0  0  0  0  0  0  0  0  0  0  0  0
    6.6385   -5.2423    0.0000 C   0  0  0  0  0  0  0  0  0  0  0  0
    7.1786   -4.6186    0.0000 C   0  0  0  0  0  0  0  0  0  0  0  0
    7.9887   -4.7745    0.0000 C   0  0  0  0  0  0  0  0  0  0  0  0
    8.2588   -5.5541    0.0000 C   0  0  0  0  0  0  0  0  0  0  0  0
    7.7187   -6.1777    0.0000 C   0  0  0  0  0  0  0  0  0  0  0  0
    2.5878   -8.8282    0.0000 C   0  0  0  0  0  0  0  0  0  0  0  0
    2.0477   -9.4518    0.0000 C   0  0  0  0  0  0  0  0  0  0  0  0
   -0.1126  -14.1291    0.0000 C   0  0  0  0  0  0  0  0  0  0  0  0
    0.1574  -14.9087    0.0000 C   0  0  0  0  0  0  0  0  0  0  0  0
   -0.3827  -15.5323    0.0000 C   0  0  0  0  0  0  0  0  0  0  0  0
   -1.1928  -15.3764    0.0000 C   0  0  0  0  0  0  0  0  0  0  0  0
   -1.4628  -14.5969    0.0000 C   0  0  0  0  0  0  0  0  0  0  0  0
   -0.9227  -13.9732    0.0000 C   0  0  0  0  0  0  0  0  0  0  0  0
  1  2  1  0  0  0  0
  2  3  1  0  0  0  0
  3  4  1  0  0  0  0
  3 31  1  0  0  0  0
  4  5  2  0  0  0  0
  4  6  1  0  0  0  0
  6  7  1  0  0  0  0
  7  8  1  0  0  0  0
  8  9  1  0  0  0  0
  9 10  1  0  0  0  0
 10 11  1  0  0  0  0
 10 30  1  0  0  0  0
 11 12  1  0  0  0  0
 12 13  1  0  0  0  0
 13 14  1  0  0  0  0
 13 29  1  0  0  0  0
 14 15  1  0  0  0  0
 15 16  1  0  0  0  0
 16 17  1  0  0  0  0
 17 18  1  0  0  0  0
 18 19  2  0  0  0  0
 18 20  1  0  0  0  0
 20 21  1  0  0  0  0
 20 23  1  0  0  0  0
 21 22  1  0  0  0  0
 23 24  2  0  0  0  0
 23 28  1  0  0  0  0
 24 25  1  0  0  0  0
 25 26  2  0  0  0  0
 26 27  1  0  0  0  0
 27 28  2  0  0  0  0
 29 30  1  0  0  0  0
 31 32  2  0  0  0  0
 31 36  1  0  0  0  0
 32 33  1  0  0  0  0
 33 34  2  0  0  0  0
 34 35  1  0  0  0  0
 35 36  2  0  0  0  0
M  END
$$$$

 OpenBabel12191814062D

 34 36  0  0  0  0  0  0  0  0999 V2000
   -2.4237   -4.7586    0.0000 C   0  0  0  0  0  0  0  0  0  0  0  0
   -1.5987   -4.7586    0.0000 C   0  0  0  0  0  0  0  0  0  0  0  0
   -1.1862   -4.0441    0.0000 C   0  0  3  0  0  0  0  0  0  0  0  0
   -0.3612   -4.0441    0.0000 C   0  0  0  0  0  0  0  0  0  0  0  0
    0.0513   -3.3296    0.0000 O   0  0  0  0  0  0  0  0  0  0  0  0
    0.0513   -4.7586    0.0000 N   0  0  0  0  0  0  0  0  0  0  0  0
    0.8763   -4.7586    0.0000 C   0  0  0  0  0  0  0  0  0  0  0  0
    1.2888   -5.4730    0.0000 C   0  0  0  0  0  0  0  0  0  0  0  0
    2.1138   -5.4730    0.0000 N   0  0  0  0  0  0  0  0  0  0  0  0
    2.5263   -4.7586    0.0000 C   0  0  0  0  0  0  0  0  0  0  0  0
    3.3513   -4.7586    0.0000 C   0  0  0  0  0  0  0  0  0  0  0  0
    3.7638   -5.4730    0.0000 N   0  0  0  0  0  0  0  0  0  0  0  0
    4.5888   -5.4730    0.0000 C   0  0  0  0  0  0  0  0  0  0  0  0
    5.0013   -6.1875    0.0000 C   0  0  0  0  0  0  0  0  0  0  0  0
    5.8263   -6.1875    0.0000 N   0  0  0  0  0  0  0  0  0  0  0  0
    6.2388   -6.9020    0.0000 C   0  0  0  0  0  0  0  0  0  0  0  0
    5.8263   -7.6164    0.0000 O   0  0  0  0  0  0  0  0  0  0  0  0
    7.0638   -6.9020    0.0000 C   0  0  3  0  0  0  0  0  0  0  0  0
    7.4763   -6.1875    0.0000 C   0  0  0  0  0  0  0  0  0  0  0  0
    8.3013   -6.1875    0.0000 C   0  0  0  0  0  0  0  0  0  0  0  0
    7.4763   -7.6164    0.0000 C   0  0  0  0  0  0  0  0  0  0  0  0
    8.3013   -7.6164    0.0000 C   0  0  0  0  0  0  0  0  0  0  0  0
    8.7138   -8.3309    0.0000 C   0  0  0  0  0  0  0  0  0  0  0  0
    8.3013   -9.0454    0.0000 C   0  0  0  0  0  0  0  0  0  0  0  0
    7.4763   -9.0454    0.0000 C   0  0  0  0  0  0  0  0  0  0  0  0
    7.0638   -8.3309    0.0000 C   0  0  0  0  0  0  0  0  0  0  0  0
    3.3513   -6.1875    0.0000 C   0  0  0  0  0  0  0  0  0  0  0  0
    2.5263   -6.1875    0.0000 C   0  0  0  0  0  0  0  0  0  0  0  0
   -1.5987   -3.3296    0.0000 C   0  0  0  0  0  0  0  0  0  0  0  0
   -2.4237   -3.3296    0.0000 C   0  0  0  0  0  0  0  0  0  0  0  0
   -2.8362   -2.6151    0.0000 C   0  0  0  0  0  0  0  0  0  0  0  0
   -2.4237   -1.9007    0.0000 C   0  0  0  0  0  0  0  0  0  0  0  0
   -1.5987   -1.9007    0.0000 C   0  0  0  0  0  0  0  0  0  0  0  0
   -1.1862   -2.6151    0.0000 C   0  0  0  0  0  0  0  0  0  0  0  0
  1  2  1  0  0  0  0
  2  3  1  0  0  0  0
  3  4  1  0  0  0  0
  3 29  1  0  0  0  0
  4  5  2  0  0  0  0
  4  6  1  0  0  0  0
  6  7  1  0  0  0  0
  7  8  1  0  0  0  0
  8  9  1  0  0  0  0
  9 10  1  0  0  0  0
  9 28  1  0  0  0  0
 10 11  1  0  0  0  0
 11 12  1  0  0  0  0
 12 13  1  0  0  0  0
 12 27  1  0  0  0  0
 13 14  1  0  0  0  0
 14 15  1  0  0  0  0
 15 16  1  0  0  0  0
 16 17  2  0  0  0  0
 16 18  1  0  0  0  0
 18 19  1  0  0  0  0
 18 21  1  0  0  0  0
 19 20  1  0  0  0  0
 21 22  2  0  0  0  0
 21 26  1  0  0  0  0
 22 23  1  0  0  0  0
 23 24  2  0  0  0  0
 24 25  1  0  0  0  0
 25 26  2  0  0  0  0
 27 28  1  0  0  0  0
 29 30  2  0  0  0  0
 29 34  1  0  0  0  0
 30 31  1  0  0  0  0
 31 32  2  0  0  0  0
 32 33  1  0  0  0  0
 33 34  2  0  0  0  0
M  END
$$$$

 OpenBabel12191814062D

 34 35  0  0  0  0  0  0  0  0999 V2000
   -0.1572   -2.3698    0.0000 C   0  0  0  0  0  0  0  0  0  0  0  0
    0.6055   -2.0553    0.0000 C   0  0  0  0  0  0  0  0  0  0  0  0
    0.7145   -1.2375    0.0000 C   0  0  3  0  0  0  0  0  0  0  0  0
    1.4772   -0.9230    0.0000 C   0  0  0  0  0  0  0  0  0  0  0  0
    1.5861   -0.1052    0.0000 O   0  0  0  0  0  0  0  0  0  0  0  0
    2.1309   -1.4262    0.0000 O   0  0  0  0  0  0  0  0  0  0  0  0
    2.8936   -1.1117    0.0000 C   0  0  0  0  0  0  0  0  0  0  0  0
    3.5473   -1.6149    0.0000 C   0  0  0  0  0  0  0  0  0  0  0  0
    4.3100   -1.3004    0.0000 N   0  0  0  0  0  0  0  0  0  0  0  0
    4.4190   -0.4826    0.0000 C   0  0  0  0  0  0  0  0  0  0  0  0
    4.9637   -1.8037    0.0000 C   0  0  0  0  0  0  0  0  0  0  0  0
    5.7264   -1.4891    0.0000 C   0  0  0  0  0  0  0  0  0  0  0  0
    6.3802   -1.9924    0.0000 N   0  0  0  0  0  0  0  0  0  0  0  0
    6.2712   -2.8101    0.0000 C   0  0  0  0  0  0  0  0  0  0  0  0
    7.1429   -1.6778    0.0000 C   0  0  0  0  0  0  0  0  0  0  0  0
    7.7966   -2.1811    0.0000 C   0  0  0  0  0  0  0  0  0  0  0  0
    8.5593   -1.8666    0.0000 O   0  0  0  0  0  0  0  0  0  0  0  0
    9.2130   -2.3698    0.0000 C   0  0  0  0  0  0  0  0  0  0  0  0
    9.1041   -3.1876    0.0000 O   0  0  0  0  0  0  0  0  0  0  0  0
    9.9757   -2.0553    0.0000 C   0  0  3  0  0  0  0  0  0  0  0  0
   10.0847   -1.2375    0.0000 C   0  0  0  0  0  0  0  0  0  0  0  0
   10.8474   -0.9230    0.0000 C   0  0  0  0  0  0  0  0  0  0  0  0
   10.6294   -2.5585    0.0000 C   0  0  0  0  0  0  0  0  0  0  0  0
   11.3921   -2.2440    0.0000 C   0  0  0  0  0  0  0  0  0  0  0  0
   12.0459   -2.7472    0.0000 C   0  0  0  0  0  0  0  0  0  0  0  0
   11.9369   -3.5650    0.0000 C   0  0  0  0  0  0  0  0  0  0  0  0
   11.1742   -3.8795    0.0000 C   0  0  0  0  0  0  0  0  0  0  0  0
   10.5205   -3.3763    0.0000 C   0  0  0  0  0  0  0  0  0  0  0  0
    0.0607   -0.7343    0.0000 C   0  0  0  0  0  0  0  0  0  0  0  0
   -0.7020   -1.0488    0.0000 C   0  0  0  0  0  0  0  0  0  0  0  0
   -1.3557   -0.5455    0.0000 C   0  0  0  0  0  0  0  0  0  0  0  0
   -1.2467    0.2722    0.0000 C   0  0  0  0  0  0  0  0  0  0  0  0
   -0.4840    0.5868    0.0000 C   0  0  0  0  0  0  0  0  0  0  0  0
    0.1697    0.0835    0.0000 C   0  0  0  0  0  0  0  0  0  0  0  0
  1  2  1  0  0  0  0
  2  3  1  0  0  0  0
  3  4  1  0  0  0  0
  3 29  1  0  0  0  0
  4  5  2  0  0  0  0
  4  6  1  0  0  0  0
  6  7  1  0  0  0  0
  7  8  1  0  0  0  0
  8  9  1  0  0  0  0
  9 10  1  0  0  0  0
  9 11  1  0  0  0  0
 11 12  1  0  0  0  0
 12 13  1  0  0  0  0
 13 14  1  0  0  0  0
 13 15  1  0  0  0  0
 15 16  1  0  0  0  0
 16 17  1  0  0  0  0
 17 18  1  0  0  0  0
 18 19  2  0  0  0  0
 18 20  1  0  0  0  0
 20 21  1  0  0  0  0
 20 23  1  0  0  0  0
 21 22  1  0  0  0  0
 23 24  2  0  0  0  0
 23 28  1  0  0  0  0
 24 25  1  0  0  0  0
 25 26  2  0  0  0  0
 26 27  1  0  0  0  0
 27 28  2  0  0  0  0
 29 30  2  0  0  0  0
 29 34  1  0  0  0  0
 30 31  1  0  0  0  0
 31 32  2  0  0  0  0
 32 33  1  0  0  0  0
 33 34  2  0  0  0  0
M  END
$$$$

 OpenBabel12191814062D

 36 37  0  0  0  0  0  0  0  0999 V2000
   -0.1572   -2.3698    0.0000 C   0  0  0  0  0  0  0  0  0  0  0  0
    0.6055   -2.0553    0.0000 C   0  0  0  0  0  0  0  0  0  0  0  0
    0.7145   -1.2375    0.0000 C   0  0  3  0  0  0  0  0  0  0  0  0
    1.4772   -0.9230    0.0000 C   0  0  0  0  0  0  0  0  0  0  0  0
    1.5861   -0.1052    0.0000 O   0  0  0  0  0  0  0  0  0  0  0  0
    2.1309   -1.4262    0.0000 O   0  0  0  0  0  0  0  0  0  0  0  0
    2.8936   -1.1117    0.0000 C   0  0  0  0  0  0  0  0  0  0  0  0
    3.5473   -1.6149    0.0000 C   0  0  0  0  0  0  0  0  0  0  0  0
    4.3100   -1.3004    0.0000 N   0  0  0  0  0  0  0  0  0  0  0  0
    4.4190   -0.4826    0.0000 C   0  0  0  0  0  0  0  0  0  0  0  0
    5.1817   -0.1681    0.0000 C   0  0  0  0  0  0  0  0  0  0  0  0
    4.9637   -1.8037    0.0000 C   0  0  0  0  0  0  0  0  0  0  0  0
    5.7264   -1.4891    0.0000 C   0  0  0  0  0  0  0  0  0  0  0  0
    6.3802   -1.9924    0.0000 N   0  0  0  0  0  0  0  0  0  0  0  0
    6.2712   -2.8101    0.0000 C   0  0  0  0  0  0  0  0  0  0  0  0
    6.9250   -3.3134    0.0000 C   0  0  0  0  0  0  0  0  0  0  0  0
    7.1429   -1.6778    0.0000 C   0  0  0  0  0  0  0  0  0  0  0  0
    7.7966   -2.1811    0.0000 C   0  0  0  0  0  0  0  0  0  0  0  0
    8.5593   -1.8666    0.0000 O   0  0  0  0  0  0  0  0  0  0  0  0
    9.2130   -2.3698    0.0000 C   0  0  0  0  0  0  0  0  0  0  0  0
    9.1041   -3.1876    0.0000 O   0  0  0  0  0  0  0  0  0  0  0  0
    9.9757   -2.0553    0.0000 C   0  0  3  0  0  0  0  0  0  0  0  0
   10.0847   -1.2375    0.0000 C   0  0  0  0  0  0  0  0  0  0  0  0
   10.8474   -0.9230    0.0000 C   0  0  0  0  0  0  0  0  0  0  0  0
   10.6294   -2.5585    0.0000 C   0  0  0  0  0  0  0  0  0  0  0  0
   11.3921   -2.2440    0.0000 C   0  0  0  0  0  0  0  0  0  0  0  0
   12.0459   -2.7472    0.0000 C   0  0  0  0  0  0  0  0  0  0  0  0
   11.9369   -3.5650    0.0000 C   0  0  0  0  0  0  0  0  0  0  0  0
   11.1742   -3.8795    0.0000 C   0  0  0  0  0  0  0  0  0  0  0  0
   10.5205   -3.3763    0.0000 C   0  0  0  0  0  0  0  0  0  0  0  0
    0.0607   -0.7343    0.0000 C   0  0  0  0  0  0  0  0  0  0  0  0
   -0.7020   -1.0488    0.0000 C   0  0  0  0  0  0  0  0  0  0  0  0
   -1.3557   -0.5455    0.0000 C   0  0  0  0  0  0  0  0  0  0  0  0
   -1.2467    0.2722    0.0000 C   0  0  0  0  0  0  0  0  0  0  0  0
   -0.4840    0.5868    0.0000 C   0  0  0  0  0  0  0  0  0  0  0  0
    0.1697    0.0835    0.0000 C   0  0  0  0  0  0  0  0  0  0  0  0
  1  2  1  0  0  0  0
  2  3  1  0  0  0  0
  3  4  1  0  0  0  0
  3 31  1  0  0  0  0
  4  5  2  0  0  0  0
  4  6  1  0  0  0  0
  6  7  1  0  0  0  0
  7  8  1  0  0  0  0
  8  9  1  0  0  0  0
  9 10  1  0  0  0  0
  9 12  1  0  0  0  0
 10 11  1  0  0  0  0
 12 13  1  0  0  0  0
 13 14  1  0  0  0  0
 14 15  1  0  0  0  0
 14 17  1  0  0  0  0
 15 16  1  0  0  0  0
 17 18  1  0  0  0  0
 18 19  1  0  0  0  0
 19 20  1  0  0  0  0
 20 21  2  0  0  0  0
 20 22  1  0  0  0  0
 22 23  1  0  0  0  0
 22 25  1  0  0  0  0
 23 24  1  0  0  0  0
 25 26  2  0  0  0  0
 25 30  1  0  0  0  0
 26 27  1  0  0  0  0
 27 28  2  0  0  0  0
 28 29  1  0  0  0  0
 29 30  2  0  0  0  0
 31 32  2  0  0  0  0
 31 36  1  0  0  0  0
 32 33  1  0  0  0  0
 33 34  2  0  0  0  0
 34 35  1  0  0  0  0
 35 36  2  0  0  0  0
M  END
$$$$

 OpenBabel12191814062D

 35 37  0  0  0  0  0  0  0  0999 V2000
   -5.7806    0.1168    0.0000 C   0  0  0  0  0  0  0  0  0  0  0  0
   -5.0373    0.4747    0.0000 C   0  0  0  0  0  0  0  0  0  0  0  0
   -4.9757    1.2974    0.0000 C   0  0  3  0  0  0  0  0  0  0  0  0
   -4.2324    1.6554    0.0000 C   0  0  0  0  0  0  0  0  0  0  0  0
   -4.1707    2.4781    0.0000 O   0  0  0  0  0  0  0  0  0  0  0  0
   -3.5507    1.1906    0.0000 O   0  0  0  0  0  0  0  0  0  0  0  0
   -2.8074    1.5486    0.0000 C   0  0  0  0  0  0  0  0  0  0  0  0
   -2.1258    1.0839    0.0000 C   0  0  0  0  0  0  0  0  0  0  0  0
   -1.3825    1.4418    0.0000 N   0  0  0  0  0  0  0  0  0  0  0  0
   -1.3825    2.2668    0.0000 C   0  0  0  0  0  0  0  0  0  0  0  0
   -0.7375    2.7812    0.0000 C   0  0  0  0  0  0  0  0  0  0  0  0
    0.0668    2.5976    0.0000 C   0  0  0  0  0  0  0  0  0  0  0  0
    0.4248    1.8543    0.0000 N   0  0  0  0  0  0  0  0  0  0  0  0
    1.2498    1.8543    0.0000 C   0  0  0  0  0  0  0  0  0  0  0  0
    1.6623    2.5688    0.0000 C   0  0  0  0  0  0  0  0  0  0  0  0
    2.4873    2.5688    0.0000 O   0  0  0  0  0  0  0  0  0  0  0  0
    2.8998    3.2833    0.0000 C   0  0  0  0  0  0  0  0  0  0  0  0
    2.4873    3.9977    0.0000 O   0  0  0  0  0  0  0  0  0  0  0  0
    3.7248    3.2833    0.0000 C   0  0  3  0  0  0  0  0  0  0  0  0
    4.1373    2.5688    0.0000 C   0  0  0  0  0  0  0  0  0  0  0  0
    3.7248    1.8543    0.0000 C   0  0  0  0  0  0  0  0  0  0  0  0
    4.1373    3.9977    0.0000 C   0  0  0  0  0  0  0  0  0  0  0  0
    3.7248    4.7122    0.0000 C   0  0  0  0  0  0  0  0  0  0  0  0
    4.1373    5.4267    0.0000 C   0  0  0  0  0  0  0  0  0  0  0  0
    4.9623    5.4267    0.0000 C   0  0  0  0  0  0  0  0  0  0  0  0
    5.3748    4.7122    0.0000 C   0  0  0  0  0  0  0  0  0  0  0  0
    4.9623    3.9977    0.0000 C   0  0  0  0  0  0  0  0  0  0  0  0
    0.0668    1.1110    0.0000 C   0  0  0  0  0  0  0  0  0  0  0  0
   -0.7375    0.9274    0.0000 C   0  0  0  0  0  0  0  0  0  0  0  0
   -5.6573    1.7622    0.0000 C   0  0  0  0  0  0  0  0  0  0  0  0
   -6.4006    1.4042    0.0000 C   0  0  0  0  0  0  0  0  0  0  0  0
   -7.0823    1.8690    0.0000 C   0  0  0  0  0  0  0  0  0  0  0  0
   -7.0206    2.6916    0.0000 C   0  0  0  0  0  0  0  0  0  0  0  0
   -6.2773    3.0496    0.0000 C   0  0  0  0  0  0  0  0  0  0  0  0
   -5.5957    2.5849    0.0000 C   0  0  0  0  0  0  0  0  0  0  0  0
  1  2  1  0  0  0  0
  2  3  1  0  0  0  0
  3  4  1  0  0  0  0
  3 30  1  0  0  0  0
  4  5  2  0  0  0  0
  4  6  1  0  0  0  0
  6  7  1  0  0  0  0
  7  8  1  0  0  0  0
  8  9  1  0  0  0  0
  9 10  1  0  0  0  0
  9 29  1  0  0  0  0
 10 11  1  0  0  0  0
 11 12  1  0  0  0  0
 12 13  1  0  0  0  0
 13 14  1  0  0  0  0
 13 28  1  0  0  0  0
 14 15  1  0  0  0  0
 15 16  1  0  0  0  0
 16 17  1  0  0  0  0
 17 18  2  0  0  0  0
 17 19  1  0  0  0  0
 19 20  1  0  0  0  0
 19 22  1  0  0  0  0
 20 21  1  0  0  0  0
 22 23  2  0  0  0  0
 22 27  1  0  0  0  0
 23 24  1  0  0  0  0
 24 25  2  0  0  0  0
 25 26  1  0  0  0  0
 26 27  2  0  0  0  0
 28 29  1  0  0  0  0
 30 31  2  0  0  0  0
 30 35  1  0  0  0  0
 31 32  1  0  0  0  0
 32 33  2  0  0  0  0
 33 34  1  0  0  0  0
 34 35  2  0  0  0  0
M  END
$$$$

 OpenBabel12191814062D

 32 34  0  0  0  0  0  0  0  0999 V2000
    0.0000   -2.4750    0.0000 C   0  0  0  0  0  0  0  0  0  0  0  0
    0.7145   -2.0625    0.0000 C   0  0  0  0  0  0  0  0  0  0  0  0
    0.7145   -1.2375    0.0000 C   0  0  3  0  0  0  0  0  0  0  0  0
    1.4289   -0.8250    0.0000 C   0  0  0  0  0  0  0  0  0  0  0  0
    1.4289   -0.0000    0.0000 O   0  0  0  0  0  0  0  0  0  0  0  0
    2.1434   -1.2375    0.0000 O   0  0  0  0  0  0  0  0  0  0  0  0
    2.8579   -0.8250    0.0000 C   0  0  0  0  0  0  0  0  0  0  0  0
    3.5724   -1.2375    0.0000 C   0  0  0  0  0  0  0  0  0  0  0  0
    4.2868   -0.8250    0.0000 N   0  0  0  0  0  0  0  0  0  0  0  0
    4.2868    0.0000    0.0000 C   0  0  0  0  0  0  0  0  0  0  0  0
    5.0013    0.4125    0.0000 C   0  0  0  0  0  0  0  0  0  0  0  0
    5.7158    0.0000    0.0000 N   0  0  0  0  0  0  0  0  0  0  0  0
    6.4302    0.4125    0.0000 C   0  0  0  0  0  0  0  0  0  0  0  0
    7.1447   -0.0000    0.0000 C   0  0  0  0  0  0  0  0  0  0  0  0
    7.1447   -0.8250    0.0000 O   0  0  0  0  0  0  0  0  0  0  0  0
    7.8592    0.4125    0.0000 N   0  0  0  0  0  0  0  0  0  0  0  0
    8.5737   -0.0000    0.0000 C   0  0  0  0  0  0  0  0  0  0  0  0
    9.2881    0.4125    0.0000 C   0  0  0  0  0  0  0  0  0  0  0  0
    9.2881    1.2375    0.0000 C   0  0  0  0  0  0  0  0  0  0  0  0
   10.0026   -0.0000    0.0000 C   0  0  0  0  0  0  0  0  0  0  0  0
   10.0026   -0.8250    0.0000 C   0  0  0  0  0  0  0  0  0  0  0  0
    9.2881   -1.2375    0.0000 C   0  0  0  0  0  0  0  0  0  0  0  0
    8.5737   -0.8250    0.0000 C   0  0  0  0  0  0  0  0  0  0  0  0
    7.8592   -1.2375    0.0000 C   0  0  0  0  0  0  0  0  0  0  0  0
    5.7158   -0.8250    0.0000 C   0  0  0  0  0  0  0  0  0  0  0  0
    5.0013   -1.2375    0.0000 C   0  0  0  0  0  0  0  0  0  0  0  0
    0.0000   -0.8250    0.0000 C   0  0  0  0  0  0  0  0  0  0  0  0
   -0.7145   -1.2375    0.0000 C   0  0  0  0  0  0  0  0  0  0  0  0
   -1.4289   -0.8250    0.0000 C   0  0  0  0  0  0  0  0  0  0  0  0
   -1.4289   -0.0000    0.0000 C   0  0  0  0  0  0  0  0  0  0  0  0
   -0.7145    0.4125    0.0000 C   0  0  0  0  0  0  0  0  0  0  0  0
    0.0000   -0.0000    0.0000 C   0  0  0  0  0  0  0  0  0  0  0  0
  1  2  1  0  0  0  0
  2  3  1  0  0  0  0
  3  4  1  0  0  0  0
  3 27  1  0  0  0  0
  4  5  2  0  0  0  0
  4  6  1  0  0  0  0
  6  7  1  0  0  0  0
  7  8  1  0  0  0  0
  8  9  1  0  0  0  0
  9 10  1  0  0  0  0
  9 26  1  0  0  0  0
 10 11  1  0  0  0  0
 11 12  1  0  0  0  0
 12 13  1  0  0  0  0
 12 25  1  0  0  0  0
 13 14  1  0  0  0  0
 14 15  2  0  0  0  0
 14 16  1  0  0  0  0
 16 17  1  0  0  0  0
 17 18  2  0  0  0  0
 17 23  1  0  0  0  0
 18 19  1  0  0  0  0
 18 20  1  0  0  0  0
 20 21  2  0  0  0  0
 21 22  1  0  0  0  0
 22 23  2  0  0  0  0
 23 24  1  0  0  0  0
 25 26  1  0  0  0  0
 27 28  2  0  0  0  0
 27 32  1  0  0  0  0
 28 29  1  0  0  0  0
 29 30  2  0  0  0  0
 30 31  1  0  0  0  0
 31 32  2  0  0  0  0
M  END
$$$$

 OpenBabel12191814062D

 33 35  0  0  0  0  0  0  0  0999 V2000
    0.0000   -2.4750    0.0000 C   0  0  0  0  0  0  0  0  0  0  0  0
    0.7145   -2.0625    0.0000 C   0  0  0  0  0  0  0  0  0  0  0  0
    0.7145   -1.2375    0.0000 C   0  0  3  0  0  0  0  0  0  0  0  0
    1.4289   -0.8250    0.0000 C   0  0  0  0  0  0  0  0  0  0  0  0
    1.4289   -0.0000    0.0000 O   0  0  0  0  0  0  0  0  0  0  0  0
    2.1434   -1.2375    0.0000 O   0  0  0  0  0  0  0  0  0  0  0  0
    2.8579   -0.8250    0.0000 C   0  0  0  0  0  0  0  0  0  0  0  0
    3.5724   -1.2375    0.0000 C   0  0  0  0  0  0  0  0  0  0  0  0
    4.2868   -0.8250    0.0000 N   0  0  0  0  0  0  0  0  0  0  0  0
    4.2868    0.0000    0.0000 C   0  0  0  0  0  0  0  0  0  0  0  0
    5.0013    0.4125    0.0000 C   0  0  0  0  0  0  0  0  0  0  0  0
    5.7158    0.0000    0.0000 N   0  0  0  0  0  0  0  0  0  0  0  0
    5.7158   -0.8250    0.0000 C   0  0  0  0  0  0  0  0  0  0  0  0
    5.0013   -1.2375    0.0000 C   0  0  0  0  0  0  0  0  0  0  0  0
    6.4302    0.4125    0.0000 C   0  0  0  0  0  0  0  0  0  0  0  0
    6.4302    1.2375    0.0000 O   0  0  0  0  0  0  0  0  0  0  0  0
    7.1447   -0.0000    0.0000 C   0  0  3  0  0  0  0  0  0  0  0  0
    7.1447   -0.8250    0.0000 C   0  0  0  0  0  0  0  0  0  0  0  0
    7.8592   -1.2375    0.0000 C   0  0  0  0  0  0  0  0  0  0  0  0
    7.8592    0.4125    0.0000 C   0  0  0  0  0  0  0  0  0  0  0  0
    7.8592    1.2375    0.0000 C   0  0  0  0  0  0  0  0  0  0  0  0
    8.5737    1.6500    0.0000 C   0  0  0  0  0  0  0  0  0  0  0  0
    9.2881    1.2375    0.0000 C   0  0  0  0  0  0  0  0  0  0  0  0
    9.2881    0.4125    0.0000 C   0  0  0  0  0  0  0  0  0  0  0  0
    8.5737   -0.0000    0.0000 C   0  0  0  0  0  0  0  0  0  0  0  0
    8.5737   -0.8250    0.0000 Cl  0  0  0  0  0  0  0  0  0  0  0  0
    0.0000   -0.8250    0.0000 C   0  0  0  0  0  0  0  0  0  0  0  0
   -0.7145   -1.2375    0.0000 C   0  0  0  0  0  0  0  0  0  0  0  0
   -1.4289   -0.8250    0.0000 C   0  0  0  0  0  0  0  0  0  0  0  0
   -1.4289   -0.0000    0.0000 C   0  0  0  0  0  0  0  0  0  0  0  0
   -0.7145    0.4125    0.0000 C   0  0  0  0  0  0  0  0  0  0  0  0
    0.0000   -0.0000    0.0000 C   0  0  0  0  0  0  0  0  0  0  0  0
    0.7145    0.4125    0.0000 Cl  0  0  0  0  0  0  0  0  0  0  0  0
  1  2  1  0  0  0  0
  2  3  1  0  0  0  0
  3  4  1  0  0  0  0
  3 27  1  0  0  0  0
  4  5  2  0  0  0  0
  4  6  1  0  0  0  0
  6  7  1  0  0  0  0
  7  8  1  0  0  0  0
  8  9  1  0  0  0  0
  9 10  1  0  0  0  0
  9 14  1  0  0  0  0
 10 11  1  0  0  0  0
 11 12  1  0  0  0  0
 12 13  1  0  0  0  0
 12 15  1  0  0  0  0
 13 14  1  0  0  0  0
 15 16  2  0  0  0  0
 15 17  1  0  0  0  0
 17 18  1  0  0  0  0
 17 20  1  0  0  0  0
 18 19  1  0  0  0  0
 20 21  2  0  0  0  0
 20 25  1  0  0  0  0
 21 22  1  0  0  0  0
 22 23  2  0  0  0  0
 23 24  1  0  0  0  0
 24 25  2  0  0  0  0
 25 26  1  0  0  0  0
 27 28  2  0  0  0  0
 27 32  1  0  0  0  0
 28 29  1  0  0  0  0
 29 30  2  0  0  0  0
 30 31  1  0  0  0  0
 31 32  2  0  0  0  0
 32 33  1  0  0  0  0
M  END
$$$$

 OpenBabel12191814062D

 34 36  0  0  0  0  0  0  0  0999 V2000
    0.0000   -2.4750    0.0000 C   0  0  0  0  0  0  0  0  0  0  0  0
    0.7145   -2.0625    0.0000 C   0  0  0  0  0  0  0  0  0  0  0  0
    0.7145   -1.2375    0.0000 C   0  0  3  0  0  0  0  0  0  0  0  0
    1.4289   -0.8250    0.0000 C   0  0  0  0  0  0  0  0  0  0  0  0
    1.4289   -0.0000    0.0000 O   0  0  0  0  0  0  0  0  0  0  0  0
    2.1434   -1.2375    0.0000 O   0  0  0  0  0  0  0  0  0  0  0  0
    2.8579   -0.8250    0.0000 C   0  0  0  0  0  0  0  0  0  0  0  0
    3.5724   -1.2375    0.0000 C   0  0  0  0  0  0  0  0  0  0  0  0
    4.2868   -0.8250    0.0000 N   0  0  0  0  0  0  0  0  0  0  0  0
    4.2868    0.0000    0.0000 C   0  0  0  0  0  0  0  0  0  0  0  0
    5.0013    0.4125    0.0000 C   0  0  0  0  0  0  0  0  0  0  0  0
    5.7158    0.0000    0.0000 N   0  0  0  0  0  0  0  0  0  0  0  0
    5.7158   -0.8250    0.0000 C   0  0  0  0  0  0  0  0  0  0  0  0
    5.0013   -1.2375    0.0000 C   0  0  0  0  0  0  0  0  0  0  0  0
    6.4302    0.4125    0.0000 C   0  0  0  0  0  0  0  0  0  0  0  0
    6.4302    1.2375    0.0000 O   0  0  0  0  0  0  0  0  0  0  0  0
    7.1447   -0.0000    0.0000 C   0  0  0  0  0  0  0  0  0  0  0  0
    7.8592    0.4125    0.0000 C   0  0  0  0  0  0  0  0  0  0  0  0
    8.5737   -0.0000    0.0000 C   0  0  0  0  0  0  0  0  0  0  0  0
    9.2881    0.4125    0.0000 O   0  0  0  0  0  0  0  0  0  0  0  0
   10.0026   -0.0000    0.0000 C   0  0  0  0  0  0  0  0  0  0  0  0
    8.5737   -0.8250    0.0000 C   0  0  0  0  0  0  0  0  0  0  0  0
    9.2881   -1.2375    0.0000 O   0  0  0  0  0  0  0  0  0  0  0  0
    9.2881   -2.0625    0.0000 C   0  0  0  0  0  0  0  0  0  0  0  0
    7.8592   -1.2375    0.0000 C   0  0  0  0  0  0  0  0  0  0  0  0
    7.8592   -2.0625    0.0000 O   0  0  0  0  0  0  0  0  0  0  0  0
    7.1447   -2.4750    0.0000 C   0  0  0  0  0  0  0  0  0  0  0  0
    7.1447   -0.8250    0.0000 C   0  0  0  0  0  0  0  0  0  0  0  0
    0.0000   -0.8250    0.0000 C   0  0  0  0  0  0  0  0  0  0  0  0
   -0.7145   -1.2375    0.0000 C   0  0  0  0  0  0  0  0  0  0  0  0
   -1.4289   -0.8250    0.0000 C   0  0  0  0  0  0  0  0  0  0  0  0
   -1.4289   -0.0000    0.0000 C   0  0  0  0  0  0  0  0  0  0  0  0
   -0.7145    0.4125    0.0000 C   0  0  0  0  0  0  0  0  0  0  0  0
    0.0000   -0.0000    0.0000 C   0  0  0  0  0  0  0  0  0  0  0  0
  1  2  1  0  0  0  0
  2  3  1  0  0  0  0
  3  4  1  0  0  0  0
  3 29  1  0  0  0  0
  4  5  2  0  0  0  0
  4  6  1  0  0  0  0
  6  7  1  0  0  0  0
  7  8  1  0  0  0  0
  8  9  1  0  0  0  0
  9 10  1  0  0  0  0
  9 14  1  0  0  0  0
 10 11  1  0  0  0  0
 11 12  1  0  0  0  0
 12 13  1  0  0  0  0
 12 15  1  0  0  0  0
 13 14  1  0  0  0  0
 15 16  2  0  0  0  0
 15 17  1  0  0  0  0
 17 18  2  0  0  0  0
 17 28  1  0  0  0  0
 18 19  1  0  0  0  0
 19 20  1  0  0  0  0
 19 22  2  0  0  0  0
 20 21  1  0  0  0  0
 22 23  1  0  0  0  0
 22 25  1  0  0  0  0
 23 24  1  0  0  0  0
 25 26  1  0  0  0  0
 25 28  2  0  0  0  0
 26 27  1  0  0  0  0
 29 30  2  0  0  0  0
 29 34  1  0  0  0  0
 30 31  1  0  0  0  0
 31 32  2  0  0  0  0
 32 33  1  0  0  0  0
 33 34  2  0  0  0  0
M  END
$$$$

 OpenBabel12191814062D

 33 35  0  0  0  0  0  0  0  0999 V2000
    0.0000   -2.4750    0.0000 C   0  0  0  0  0  0  0  0  0  0  0  0
    0.7145   -2.0625    0.0000 C   0  0  0  0  0  0  0  0  0  0  0  0
    0.7145   -1.2375    0.0000 C   0  0  3  0  0  0  0  0  0  0  0  0
    1.4289   -0.8250    0.0000 C   0  0  0  0  0  0  0  0  0  0  0  0
    1.4289   -0.0000    0.0000 O   0  0  0  0  0  0  0  0  0  0  0  0
    2.1434   -1.2375    0.0000 O   0  0  0  0  0  0  0  0  0  0  0  0
    2.8579   -0.8250    0.0000 C   0  0  0  0  0  0  0  0  0  0  0  0
    3.5724   -1.2375    0.0000 C   0  0  0  0  0  0  0  0  0  0  0  0
    4.2868   -0.8250    0.0000 N   0  0  0  0  0  0  0  0  0  0  0  0
    4.2868    0.0000    0.0000 C   0  0  0  0  0  0  0  0  0  0  0  0
    5.0013    0.4125    0.0000 C   0  0  0  0  0  0  0  0  0  0  0  0
    5.7158    0.0000    0.0000 N   0  0  0  0  0  0  0  0  0  0  0  0
    6.4302    0.4125    0.0000 C   0  0  0  0  0  0  0  0  0  0  0  0
    7.1447   -0.0000    0.0000 C   0  0  0  0  0  0  0  0  0  0  0  0
    7.8592    0.4125    0.0000 C   0  0  0  0  0  0  0  0  0  0  0  0
    7.8592    1.2375    0.0000 O   0  0  0  0  0  0  0  0  0  0  0  0
    8.5737   -0.0000    0.0000 N   0  0  0  0  0  0  0  0  0  0  0  0
    9.2881    0.4125    0.0000 C   0  0  0  0  0  0  0  0  0  0  0  0
    9.2881    1.2375    0.0000 C   0  0  0  0  0  0  0  0  0  0  0  0
    8.5737    1.6500    0.0000 C   0  0  0  0  0  0  0  0  0  0  0  0
   10.0026    1.6500    0.0000 C   0  0  0  0  0  0  0  0  0  0  0  0
   10.7171    1.2375    0.0000 C   0  0  0  0  0  0  0  0  0  0  0  0
   10.7171    0.4125    0.0000 C   0  0  0  0  0  0  0  0  0  0  0  0
   10.0026   -0.0000    0.0000 C   0  0  0  0  0  0  0  0  0  0  0  0
   10.0026   -0.8250    0.0000 C   0  0  0  0  0  0  0  0  0  0  0  0
    5.7158   -0.8250    0.0000 C   0  0  0  0  0  0  0  0  0  0  0  0
    5.0013   -1.2375    0.0000 C   0  0  0  0  0  0  0  0  0  0  0  0
    0.0000   -0.8250    0.0000 C   0  0  0  0  0  0  0  0  0  0  0  0
   -0.7145   -1.2375    0.0000 C   0  0  0  0  0  0  0  0  0  0  0  0
   -1.4289   -0.8250    0.0000 C   0  0  0  0  0  0  0  0  0  0  0  0
   -1.4289   -0.0000    0.0000 C   0  0  0  0  0  0  0  0  0  0  0  0
   -0.7145    0.4125    0.0000 C   0  0  0  0  0  0  0  0  0  0  0  0
    0.0000   -0.0000    0.0000 C   0  0  0  0  0  0  0  0  0  0  0  0
  1  2  1  0  0  0  0
  2  3  1  0  0  0  0
  3  4  1  0  0  0  0
  3 28  1  0  0  0  0
  4  5  2  0  0  0  0
  4  6  1  0  0  0  0
  6  7  1  0  0  0  0
  7  8  1  0  0  0  0
  8  9  1  0  0  0  0
  9 10  1  0  0  0  0
  9 27  1  0  0  0  0
 10 11  1  0  0  0  0
 11 12  1  0  0  0  0
 12 13  1  0  0  0  0
 12 26  1  0  0  0  0
 13 14  1  0  0  0  0
 14 15  1  0  0  0  0
 15 16  2  0  0  0  0
 15 17  1  0  0  0  0
 17 18  1  0  0  0  0
 18 19  2  0  0  0  0
 18 24  1  0  0  0  0
 19 20  1  0  0  0  0
 19 21  1  0  0  0  0
 21 22  2  0  0  0  0
 22 23  1  0  0  0  0
 23 24  2  0  0  0  0
 24 25  1  0  0  0  0
 26 27  1  0  0  0  0
 28 29  2  0  0  0  0
 28 33  1  0  0  0  0
 29 30  1  0  0  0  0
 30 31  2  0  0  0  0
 31 32  1  0  0  0  0
 32 33  2  0  0  0  0
M  END
$$$$

 OpenBabel12191814062D

 36 38  0  0  0  0  0  0  0  0999 V2000
   -2.4237   -4.7586    0.0000 C   0  0  0  0  0  0  0  0  0  0  0  0
   -1.5987   -4.7586    0.0000 C   0  0  0  0  0  0  0  0  0  0  0  0
   -1.1862   -4.0441    0.0000 C   0  0  3  0  0  0  0  0  0  0  0  0
   -0.3612   -4.0441    0.0000 C   0  0  0  0  0  0  0  0  0  0  0  0
    0.0513   -3.3296    0.0000 O   0  0  0  0  0  0  0  0  0  0  0  0
    0.0513   -4.7586    0.0000 O   0  0  0  0  0  0  0  0  0  0  0  0
    0.8763   -4.7586    0.0000 C   0  0  0  0  0  0  0  0  0  0  0  0
    1.2888   -5.4730    0.0000 C   0  0  0  0  0  0  0  0  0  0  0  0
    2.1138   -5.4730    0.0000 N   0  0  0  0  0  0  0  0  0  0  0  0
    2.5263   -4.7586    0.0000 C   0  0  0  0  0  0  0  0  0  0  0  0
    3.3513   -4.7586    0.0000 C   0  0  0  0  0  0  0  0  0  0  0  0
    3.7638   -5.4730    0.0000 N   0  0  0  0  0  0  0  0  0  0  0  0
    4.5888   -5.4730    0.0000 C   0  0  0  0  0  0  0  0  0  0  0  0
    5.0013   -6.1875    0.0000 C   0  0  0  0  0  0  0  0  0  0  0  0
    5.8263   -6.1875    0.0000 O   0  0  0  0  0  0  0  0  0  0  0  0
    6.2388   -6.9020    0.0000 C   0  0  0  0  0  0  0  0  0  0  0  0
    5.8263   -7.6164    0.0000 O   0  0  0  0  0  0  0  0  0  0  0  0
    7.0638   -6.9020    0.0000 C   0  0  3  0  0  0  0  0  0  0  0  0
    7.4763   -6.1875    0.0000 C   0  0  0  0  0  0  0  0  0  0  0  0
    8.3013   -6.1875    0.0000 C   0  0  0  0  0  0  0  0  0  0  0  0
    7.4763   -7.6164    0.0000 C   0  0  0  0  0  0  0  0  0  0  0  0
    8.3013   -7.6164    0.0000 C   0  0  0  0  0  0  0  0  0  0  0  0
    8.7138   -8.3309    0.0000 C   0  0  0  0  0  0  0  0  0  0  0  0
    8.3013   -9.0454    0.0000 C   0  0  0  0  0  0  0  0  0  0  0  0
    8.7138   -9.7599    0.0000 Cl  0  0  0  0  0  0  0  0  0  0  0  0
    7.4763   -9.0454    0.0000 C   0  0  0  0  0  0  0  0  0  0  0  0
    7.0638   -8.3309    0.0000 C   0  0  0  0  0  0  0  0  0  0  0  0
    3.3513   -6.1875    0.0000 C   0  0  0  0  0  0  0  0  0  0  0  0
    2.5263   -6.1875    0.0000 C   0  0  0  0  0  0  0  0  0  0  0  0
   -1.5987   -3.3296    0.0000 C   0  0  0  0  0  0  0  0  0  0  0  0
   -2.4237   -3.3296    0.0000 C   0  0  0  0  0  0  0  0  0  0  0  0
   -2.8362   -2.6151    0.0000 C   0  0  0  0  0  0  0  0  0  0  0  0
   -2.4237   -1.9007    0.0000 C   0  0  0  0  0  0  0  0  0  0  0  0
   -2.8362   -1.1862    0.0000 Cl  0  0  0  0  0  0  0  0  0  0  0  0
   -1.5987   -1.9007    0.0000 C   0  0  0  0  0  0  0  0  0  0  0  0
   -1.1862   -2.6151    0.0000 C   0  0  0  0  0  0  0  0  0  0  0  0
  1  2  1  0  0  0  0
  2  3  1  0  0  0  0
  3  4  1  0  0  0  0
  3 30  1  0  0  0  0
  4  5  2  0  0  0  0
  4  6  1  0  0  0  0
  6  7  1  0  0  0  0
  7  8  1  0  0  0  0
  8  9  1  0  0  0  0
  9 10  1  0  0  0  0
  9 29  1  0  0  0  0
 10 11  1  0  0  0  0
 11 12  1  0  0  0  0
 12 13  1  0  0  0  0
 12 28  1  0  0  0  0
 13 14  1  0  0  0  0
 14 15  1  0  0  0  0
 15 16  1  0  0  0  0
 16 17  2  0  0  0  0
 16 18  1  0  0  0  0
 18 19  1  0  0  0  0
 18 21  1  0  0  0  0
 19 20  1  0  0  0  0
 21 22  2  0  0  0  0
 21 27  1  0  0  0  0
 22 23  1  0  0  0  0
 23 24  2  0  0  0  0
 24 25  1  0  0  0  0
 24 26  1  0  0  0  0
 26 27  2  0  0  0  0
 28 29  1  0  0  0  0
 30 31  2  0  0  0  0
 30 36  1  0  0  0  0
 31 32  1  0  0  0  0
 32 33  2  0  0  0  0
 33 34  1  0  0  0  0
 33 35  1  0  0  0  0
 35 36  2  0  0  0  0
M  END
$$$$

 OpenBabel12191814062D

 36 38  0  0  0  0  0  0  0  0999 V2000
   -2.4237   -4.7586    0.0000 C   0  0  0  0  0  0  0  0  0  0  0  0
   -1.5987   -4.7586    0.0000 C   0  0  0  0  0  0  0  0  0  0  0  0
   -1.1862   -4.0441    0.0000 C   0  0  3  0  0  0  0  0  0  0  0  0
   -0.3612   -4.0441    0.0000 C   0  0  0  0  0  0  0  0  0  0  0  0
    0.0513   -3.3296    0.0000 O   0  0  0  0  0  0  0  0  0  0  0  0
    0.0513   -4.7586    0.0000 O   0  0  0  0  0  0  0  0  0  0  0  0
    0.8763   -4.7586    0.0000 C   0  0  0  0  0  0  0  0  0  0  0  0
    1.2888   -5.4730    0.0000 C   0  0  0  0  0  0  0  0  0  0  0  0
    2.1138   -5.4730    0.0000 N   0  0  0  0  0  0  0  0  0  0  0  0
    2.5263   -4.7586    0.0000 C   0  0  0  0  0  0  0  0  0  0  0  0
    3.3513   -4.7586    0.0000 C   0  0  0  0  0  0  0  0  0  0  0  0
    3.7638   -5.4730    0.0000 N   0  0  0  0  0  0  0  0  0  0  0  0
    4.5888   -5.4730    0.0000 C   0  0  0  0  0  0  0  0  0  0  0  0
    5.0013   -6.1875    0.0000 C   0  0  0  0  0  0  0  0  0  0  0  0
    5.8263   -6.1875    0.0000 O   0  0  0  0  0  0  0  0  0  0  0  0
    6.2388   -6.9020    0.0000 C   0  0  0  0  0  0  0  0  0  0  0  0
    5.8263   -7.6164    0.0000 O   0  0  0  0  0  0  0  0  0  0  0  0
    7.0638   -6.9020    0.0000 C   0  0  3  0  0  0  0  0  0  0  0  0
    7.4763   -6.1875    0.0000 C   0  0  0  0  0  0  0  0  0  0  0  0
    8.3013   -6.1875    0.0000 C   0  0  0  0  0  0  0  0  0  0  0  0
    7.4763   -7.6164    0.0000 C   0  0  0  0  0  0  0  0  0  0  0  0
    8.3013   -7.6164    0.0000 C   0  0  0  0  0  0  0  0  0  0  0  0
    8.7138   -8.3309    0.0000 C   0  0  0  0  0  0  0  0  0  0  0  0
    8.3013   -9.0454    0.0000 C   0  0  0  0  0  0  0  0  0  0  0  0
    8.7138   -9.7599    0.0000 F   0  0  0  0  0  0  0  0  0  0  0  0
    7.4763   -9.0454    0.0000 C   0  0  0  0  0  0  0  0  0  0  0  0
    7.0638   -8.3309    0.0000 C   0  0  0  0  0  0  0  0  0  0  0  0
    3.3513   -6.1875    0.0000 C   0  0  0  0  0  0  0  0  0  0  0  0
    2.5263   -6.1875    0.0000 C   0  0  0  0  0  0  0  0  0  0  0  0
   -1.5987   -3.3296    0.0000 C   0  0  0  0  0  0  0  0  0  0  0  0
   -2.4237   -3.3296    0.0000 C   0  0  0  0  0  0  0  0  0  0  0  0
   -2.8362   -2.6151    0.0000 C   0  0  0  0  0  0  0  0  0  0  0  0
   -2.4237   -1.9007    0.0000 C   0  0  0  0  0  0  0  0  0  0  0  0
   -2.8362   -1.1862    0.0000 F   0  0  0  0  0  0  0  0  0  0  0  0
   -1.5987   -1.9007    0.0000 C   0  0  0  0  0  0  0  0  0  0  0  0
   -1.1862   -2.6151    0.0000 C   0  0  0  0  0  0  0  0  0  0  0  0
  1  2  1  0  0  0  0
  2  3  1  0  0  0  0
  3  4  1  0  0  0  0
  3 30  1  0  0  0  0
  4  5  2  0  0  0  0
  4  6  1  0  0  0  0
  6  7  1  0  0  0  0
  7  8  1  0  0  0  0
  8  9  1  0  0  0  0
  9 10  1  0  0  0  0
  9 29  1  0  0  0  0
 10 11  1  0  0  0  0
 11 12  1  0  0  0  0
 12 13  1  0  0  0  0
 12 28  1  0  0  0  0
 13 14  1  0  0  0  0
 14 15  1  0  0  0  0
 15 16  1  0  0  0  0
 16 17  2  0  0  0  0
 16 18  1  0  0  0  0
 18 19  1  0  0  0  0
 18 21  1  0  0  0  0
 19 20  1  0  0  0  0
 21 22  2  0  0  0  0
 21 27  1  0  0  0  0
 22 23  1  0  0  0  0
 23 24  2  0  0  0  0
 24 25  1  0  0  0  0
 24 26  1  0  0  0  0
 26 27  2  0  0  0  0
 28 29  1  0  0  0  0
 30 31  2  0  0  0  0
 30 36  1  0  0  0  0
 31 32  1  0  0  0  0
 32 33  2  0  0  0  0
 33 34  1  0  0  0  0
 33 35  1  0  0  0  0
 35 36  2  0  0  0  0
M  END
$$$$

 OpenBabel12191814062D

 42 44  0  0  0  0  0  0  0  0999 V2000
   -2.4237   -4.7586    0.0000 C   0  0  0  0  0  0  0  0  0  0  0  0
   -1.5987   -4.7586    0.0000 C   0  0  0  0  0  0  0  0  0  0  0  0
   -1.1862   -4.0441    0.0000 C   0  0  3  0  0  0  0  0  0  0  0  0
   -0.3612   -4.0441    0.0000 C   0  0  0  0  0  0  0  0  0  0  0  0
    0.0513   -3.3296    0.0000 O   0  0  0  0  0  0  0  0  0  0  0  0
    0.0513   -4.7586    0.0000 O   0  0  0  0  0  0  0  0  0  0  0  0
    0.8763   -4.7586    0.0000 C   0  0  0  0  0  0  0  0  0  0  0  0
    1.2888   -5.4730    0.0000 C   0  0  0  0  0  0  0  0  0  0  0  0
    2.1138   -5.4730    0.0000 N   0  0  0  0  0  0  0  0  0  0  0  0
    2.5263   -4.7586    0.0000 C   0  0  0  0  0  0  0  0  0  0  0  0
    3.3513   -4.7586    0.0000 C   0  0  0  0  0  0  0  0  0  0  0  0
    3.7638   -5.4730    0.0000 N   0  0  0  0  0  0  0  0  0  0  0  0
    4.5888   -5.4730    0.0000 C   0  0  0  0  0  0  0  0  0  0  0  0
    5.0013   -6.1875    0.0000 C   0  0  0  0  0  0  0  0  0  0  0  0
    5.8263   -6.1875    0.0000 O   0  0  0  0  0  0  0  0  0  0  0  0
    6.2388   -6.9020    0.0000 C   0  0  0  0  0  0  0  0  0  0  0  0
    5.8263   -7.6164    0.0000 O   0  0  0  0  0  0  0  0  0  0  0  0
    7.0638   -6.9020    0.0000 C   0  0  3  0  0  0  0  0  0  0  0  0
    7.4763   -6.1875    0.0000 C   0  0  0  0  0  0  0  0  0  0  0  0
    8.3013   -6.1875    0.0000 C   0  0  0  0  0  0  0  0  0  0  0  0
    7.4763   -7.6164    0.0000 C   0  0  0  0  0  0  0  0  0  0  0  0
    8.3013   -7.6164    0.0000 C   0  0  0  0  0  0  0  0  0  0  0  0
    8.7138   -8.3309    0.0000 C   0  0  0  0  0  0  0  0  0  0  0  0
    8.3013   -9.0454    0.0000 C   0  0  0  0  0  0  0  0  0  0  0  0
    8.7138   -9.7599    0.0000 O   0  0  0  0  0  0  0  0  0  0  0  0
    8.3013  -10.4743    0.0000 C   0  0  0  0  0  0  0  0  0  0  0  0
    7.4763   -9.0454    0.0000 C   0  0  0  0  0  0  0  0  0  0  0  0
    7.0638   -9.7599    0.0000 O   0  0  0  0  0  0  0  0  0  0  0  0
    6.2388   -9.7599    0.0000 C   0  0  0  0  0  0  0  0  0  0  0  0
    7.0638   -8.3309    0.0000 C   0  0  0  0  0  0  0  0  0  0  0  0
    3.3513   -6.1875    0.0000 C   0  0  0  0  0  0  0  0  0  0  0  0
    2.5263   -6.1875    0.0000 C   0  0  0  0  0  0  0  0  0  0  0  0
   -1.5987   -3.3296    0.0000 C   0  0  0  0  0  0  0  0  0  0  0  0
   -2.4237   -3.3296    0.0000 C   0  0  0  0  0  0  0  0  0  0  0  0
   -2.8362   -2.6151    0.0000 C   0  0  0  0  0  0  0  0  0  0  0  0
   -2.4237   -1.9007    0.0000 C   0  0  0  0  0  0  0  0  0  0  0  0
   -2.8362   -1.1862    0.0000 O   0  0  0  0  0  0  0  0  0  0  0  0
   -3.6612   -1.1862    0.0000 C   0  0  0  0  0  0  0  0  0  0  0  0
   -1.5987   -1.9007    0.0000 C   0  0  0  0  0  0  0  0  0  0  0  0
   -1.1862   -1.1862    0.0000 O   0  0  0  0  0  0  0  0  0  0  0  0
   -0.3612   -1.1862    0.0000 C   0  0  0  0  0  0  0  0  0  0  0  0
   -1.1862   -2.6151    0.0000 C   0  0  0  0  0  0  0  0  0  0  0  0
  1  2  1  0  0  0  0
  2  3  1  0  0  0  0
  3  4  1  0  0  0  0
  3 33  1  0  0  0  0
  4  5  2  0  0  0  0
  4  6  1  0  0  0  0
  6  7  1  0  0  0  0
  7  8  1  0  0  0  0
  8  9  1  0  0  0  0
  9 10  1  0  0  0  0
  9 32  1  0  0  0  0
 10 11  1  0  0  0  0
 11 12  1  0  0  0  0
 12 13  1  0  0  0  0
 12 31  1  0  0  0  0
 13 14  1  0  0  0  0
 14 15  1  0  0  0  0
 15 16  1  0  0  0  0
 16 17  2  0  0  0  0
 16 18  1  0  0  0  0
 18 19  1  0  0  0  0
 18 21  1  0  0  0  0
 19 20  1  0  0  0  0
 21 22  2  0  0  0  0
 21 30  1  0  0  0  0
 22 23  1  0  0  0  0
 23 24  2  0  0  0  0
 24 25  1  0  0  0  0
 24 27  1  0  0  0  0
 25 26  1  0  0  0  0
 27 28  1  0  0  0  0
 27 30  2  0  0  0  0
 28 29  1  0  0  0  0
 31 32  1  0  0  0  0
 33 34  2  0  0  0  0
 33 42  1  0  0  0  0
 34 35  1  0  0  0  0
 35 36  2  0  0  0  0
 36 37  1  0  0  0  0
 36 39  1  0  0  0  0
 37 38  1  0  0  0  0
 39 40  1  0  0  0  0
 39 42  2  0  0  0  0
 40 41  1  0  0  0  0
M  END
$$$$

 OpenBabel12191814062D

 34 36  0  0  0  0  0  0  0  0999 V2000
   -2.4237   -4.7586    0.0000 C   0  0  0  0  0  0  0  0  0  0  0  0
   -1.5987   -4.7586    0.0000 C   0  0  0  0  0  0  0  0  0  0  0  0
   -1.1862   -4.0441    0.0000 C   0  0  3  0  0  0  0  0  0  0  0  0
   -0.3612   -4.0441    0.0000 C   0  0  0  0  0  0  0  0  0  0  0  0
    0.0513   -3.3296    0.0000 O   0  0  0  0  0  0  0  0  0  0  0  0
    0.0513   -4.7586    0.0000 O   0  0  0  0  0  0  0  0  0  0  0  0
    0.8763   -4.7586    0.0000 C   0  0  0  0  0  0  0  0  0  0  0  0
    1.2888   -5.4730    0.0000 C   0  0  0  0  0  0  0  0  0  0  0  0
    2.1138   -5.4730    0.0000 N   0  0  0  0  0  0  0  0  0  0  0  0
    2.5263   -4.7586    0.0000 C   0  0  0  0  0  0  0  0  0  0  0  0
    3.3513   -4.7586    0.0000 C   0  0  0  0  0  0  0  0  0  0  0  0
    3.7638   -5.4730    0.0000 N   0  0  0  0  0  0  0  0  0  0  0  0
    4.5888   -5.4730    0.0000 C   0  0  0  0  0  0  0  0  0  0  0  0
    5.0013   -6.1875    0.0000 C   0  0  0  0  0  0  0  0  0  0  0  0
    5.8263   -6.1875    0.0000 O   0  0  0  0  0  0  0  0  0  0  0  0
    6.2388   -6.9020    0.0000 C   0  0  0  0  0  0  0  0  0  0  0  0
    5.8263   -7.6164    0.0000 O   0  0  0  0  0  0  0  0  0  0  0  0
    7.0638   -6.9020    0.0000 C   0  0  3  0  0  0  0  0  0  0  0  0
    7.4763   -6.1875    0.0000 C   0  0  0  0  0  0  0  0  0  0  0  0
    8.3013   -6.1875    0.0000 C   0  0  0  0  0  0  0  0  0  0  0  0
    7.4763   -7.6164    0.0000 C   0  0  0  0  0  0  0  0  0  0  0  0
    8.3013   -7.6164    0.0000 C   0  0  0  0  0  0  0  0  0  0  0  0
    8.7138   -8.3309    0.0000 C   0  0  0  0  0  0  0  0  0  0  0  0
    8.3013   -9.0454    0.0000 C   0  0  0  0  0  0  0  0  0  0  0  0
    7.4763   -9.0454    0.0000 C   0  0  0  0  0  0  0  0  0  0  0  0
    7.0638   -8.3309    0.0000 C   0  0  0  0  0  0  0  0  0  0  0  0
    3.3513   -6.1875    0.0000 C   0  0  0  0  0  0  0  0  0  0  0  0
    2.5263   -6.1875    0.0000 C   0  0  0  0  0  0  0  0  0  0  0  0
   -1.5987   -3.3296    0.0000 C   0  0  0  0  0  0  0  0  0  0  0  0
   -2.4237   -3.3296    0.0000 C   0  0  0  0  0  0  0  0  0  0  0  0
   -2.8362   -2.6151    0.0000 C   0  0  0  0  0  0  0  0  0  0  0  0
   -2.4237   -1.9007    0.0000 C   0  0  0  0  0  0  0  0  0  0  0  0
   -1.5987   -1.9007    0.0000 C   0  0  0  0  0  0  0  0  0  0  0  0
   -1.1862   -2.6151    0.0000 C   0  0  0  0  0  0  0  0  0  0  0  0
  1  2  1  0  0  0  0
  2  3  1  0  0  0  0
  3  4  1  0  0  0  0
  3 29  1  0  0  0  0
  4  5  2  0  0  0  0
  4  6  1  0  0  0  0
  6  7  1  0  0  0  0
  7  8  1  0  0  0  0
  8  9  1  0  0  0  0
  9 10  1  0  0  0  0
  9 28  1  0  0  0  0
 10 11  1  0  0  0  0
 11 12  1  0  0  0  0
 12 13  1  0  0  0  0
 12 27  1  0  0  0  0
 13 14  1  0  0  0  0
 14 15  1  0  0  0  0
 15 16  1  0  0  0  0
 16 17  2  0  0  0  0
 16 18  1  0  0  0  0
 18 19  1  0  0  0  0
 18 21  1  0  0  0  0
 19 20  1  0  0  0  0
 21 22  2  0  0  0  0
 21 26  1  0  0  0  0
 22 23  1  0  0  0  0
 23 24  2  0  0  0  0
 24 25  1  0  0  0  0
 25 26  2  0  0  0  0
 27 28  1  0  0  0  0
 29 30  2  0  0  0  0
 29 34  1  0  0  0  0
 30 31  1  0  0  0  0
 31 32  2  0  0  0  0
 32 33  1  0  0  0  0
 33 34  2  0  0  0  0
M  END
$$$$

 OpenBabel12191814062D

 36 38  0  0  0  0  0  0  0  0999 V2000
   -2.4237   -4.7586    0.0000 C   0  0  0  0  0  0  0  0  0  0  0  0
   -1.5987   -4.7586    0.0000 C   0  0  0  0  0  0  0  0  0  0  0  0
   -1.1862   -4.0441    0.0000 C   0  0  3  0  0  0  0  0  0  0  0  0
   -0.3612   -4.0441    0.0000 C   0  0  0  0  0  0  0  0  0  0  0  0
    0.0513   -3.3296    0.0000 O   0  0  0  0  0  0  0  0  0  0  0  0
    0.0513   -4.7586    0.0000 O   0  0  0  0  0  0  0  0  0  0  0  0
    0.8763   -4.7586    0.0000 C   0  0  0  0  0  0  0  0  0  0  0  0
    1.2888   -5.4730    0.0000 C   0  0  0  0  0  0  0  0  0  0  0  0
    2.1138   -5.4730    0.0000 N   0  0  0  0  0  0  0  0  0  0  0  0
    2.5263   -4.7586    0.0000 C   0  0  0  0  0  0  0  0  0  0  0  0
    3.3513   -4.7586    0.0000 C   0  0  0  0  0  0  0  0  0  0  0  0
    3.7638   -5.4730    0.0000 N   0  0  0  0  0  0  0  0  0  0  0  0
    4.5888   -5.4730    0.0000 C   0  0  0  0  0  0  0  0  0  0  0  0
    5.0013   -6.1875    0.0000 C   0  0  0  0  0  0  0  0  0  0  0  0
    5.8263   -6.1875    0.0000 O   0  0  0  0  0  0  0  0  0  0  0  0
    6.2388   -6.9020    0.0000 C   0  0  0  0  0  0  0  0  0  0  0  0
    5.8263   -7.6164    0.0000 O   0  0  0  0  0  0  0  0  0  0  0  0
    7.0638   -6.9020    0.0000 C   0  0  3  0  0  0  0  0  0  0  0  0
    7.4763   -6.1875    0.0000 C   0  0  0  0  0  0  0  0  0  0  0  0
    8.3013   -6.1875    0.0000 C   0  0  0  0  0  0  0  0  0  0  0  0
    7.4763   -7.6164    0.0000 C   0  0  0  0  0  0  0  0  0  0  0  0
    8.3013   -7.6164    0.0000 C   0  0  0  0  0  0  0  0  0  0  0  0
    8.7138   -8.3309    0.0000 C   0  0  0  0  0  0  0  0  0  0  0  0
    8.3013   -9.0454    0.0000 C   0  0  0  0  0  0  0  0  0  0  0  0
    7.4763   -9.0454    0.0000 C   0  0  0  0  0  0  0  0  0  0  0  0
    7.0638   -8.3309    0.0000 C   0  0  0  0  0  0  0  0  0  0  0  0
    6.2388   -8.3309    0.0000 C   0  0  0  0  0  0  0  0  0  0  0  0
    3.3513   -6.1875    0.0000 C   0  0  0  0  0  0  0  0  0  0  0  0
    2.5263   -6.1875    0.0000 C   0  0  0  0  0  0  0  0  0  0  0  0
   -1.5987   -3.3296    0.0000 C   0  0  0  0  0  0  0  0  0  0  0  0
   -2.4237   -3.3296    0.0000 C   0  0  0  0  0  0  0  0  0  0  0  0
   -2.8362   -2.6151    0.0000 C   0  0  0  0  0  0  0  0  0  0  0  0
   -2.4237   -1.9007    0.0000 C   0  0  0  0  0  0  0  0  0  0  0  0
   -1.5987   -1.9007    0.0000 C   0  0  0  0  0  0  0  0  0  0  0  0
   -1.1862   -2.6151    0.0000 C   0  0  0  0  0  0  0  0  0  0  0  0
   -0.3612   -2.6151    0.0000 C   0  0  0  0  0  0  0  0  0  0  0  0
  1  2  1  0  0  0  0
  2  3  1  0  0  0  0
  3  4  1  0  0  0  0
  3 30  1  0  0  0  0
  4  5  2  0  0  0  0
  4  6  1  0  0  0  0
  6  7  1  0  0  0  0
  7  8  1  0  0  0  0
  8  9  1  0  0  0  0
  9 10  1  0  0  0  0
  9 29  1  0  0  0  0
 10 11  1  0  0  0  0
 11 12  1  0  0  0  0
 12 13  1  0  0  0  0
 12 28  1  0  0  0  0
 13 14  1  0  0  0  0
 14 15  1  0  0  0  0
 15 16  1  0  0  0  0
 16 17  2  0  0  0  0
 16 18  1  0  0  0  0
 18 19  1  0  0  0  0
 18 21  1  0  0  0  0
 19 20  1  0  0  0  0
 21 22  2  0  0  0  0
 21 26  1  0  0  0  0
 22 23  1  0  0  0  0
 23 24  2  0  0  0  0
 24 25  1  0  0  0  0
 25 26  2  0  0  0  0
 26 27  1  0  0  0  0
 28 29  1  0  0  0  0
 30 31  2  0  0  0  0
 30 35  1  0  0  0  0
 31 32  1  0  0  0  0
 32 33  2  0  0  0  0
 33 34  1  0  0  0  0
 34 35  2  0  0  0  0
 35 36  1  0  0  0  0
M  END
$$$$

 OpenBabel12191814062D

 36 38  0  0  0  0  0  0  0  0999 V2000
   -2.4237   -4.7586    0.0000 C   0  0  0  0  0  0  0  0  0  0  0  0
   -1.5987   -4.7586    0.0000 C   0  0  0  0  0  0  0  0  0  0  0  0
   -1.1862   -4.0441    0.0000 C   0  0  3  0  0  0  0  0  0  0  0  0
   -0.3612   -4.0441    0.0000 C   0  0  0  0  0  0  0  0  0  0  0  0
    0.0513   -3.3296    0.0000 O   0  0  0  0  0  0  0  0  0  0  0  0
    0.0513   -4.7586    0.0000 O   0  0  0  0  0  0  0  0  0  0  0  0
    0.8763   -4.7586    0.0000 C   0  0  0  0  0  0  0  0  0  0  0  0
    1.2888   -5.4730    0.0000 C   0  0  0  0  0  0  0  0  0  0  0  0
    2.1138   -5.4730    0.0000 N   0  0  0  0  0  0  0  0  0  0  0  0
    2.5263   -4.7586    0.0000 C   0  0  0  0  0  0  0  0  0  0  0  0
    3.3513   -4.7586    0.0000 C   0  0  0  0  0  0  0  0  0  0  0  0
    3.7638   -5.4730    0.0000 N   0  0  0  0  0  0  0  0  0  0  0  0
    4.5888   -5.4730    0.0000 C   0  0  0  0  0  0  0  0  0  0  0  0
    5.0013   -6.1875    0.0000 C   0  0  0  0  0  0  0  0  0  0  0  0
    5.8263   -6.1875    0.0000 O   0  0  0  0  0  0  0  0  0  0  0  0
    6.2388   -6.9020    0.0000 C   0  0  0  0  0  0  0  0  0  0  0  0
    5.8263   -7.6164    0.0000 O   0  0  0  0  0  0  0  0  0  0  0  0
    7.0638   -6.9020    0.0000 C   0  0  3  0  0  0  0  0  0  0  0  0
    7.4763   -6.1875    0.0000 C   0  0  0  0  0  0  0  0  0  0  0  0
    8.3013   -6.1875    0.0000 C   0  0  0  0  0  0  0  0  0  0  0  0
    7.4763   -7.6164    0.0000 C   0  0  0  0  0  0  0  0  0  0  0  0
    8.3013   -7.6164    0.0000 C   0  0  0  0  0  0  0  0  0  0  0  0
    8.7138   -8.3309    0.0000 C   0  0  0  0  0  0  0  0  0  0  0  0
    8.3013   -9.0454    0.0000 C   0  0  0  0  0  0  0  0  0  0  0  0
    7.4763   -9.0454    0.0000 C   0  0  0  0  0  0  0  0  0  0  0  0
    7.0638   -8.3309    0.0000 C   0  0  0  0  0  0  0  0  0  0  0  0
    6.2388   -8.3309    0.0000 Cl  0  0  0  0  0  0  0  0  0  0  0  0
    3.3513   -6.1875    0.0000 C   0  0  0  0  0  0  0  0  0  0  0  0
    2.5263   -6.1875    0.0000 C   0  0  0  0  0  0  0  0  0  0  0  0
   -1.5987   -3.3296    0.0000 C   0  0  0  0  0  0  0  0  0  0  0  0
   -2.4237   -3.3296    0.0000 C   0  0  0  0  0  0  0  0  0  0  0  0
   -2.8362   -2.6151    0.0000 C   0  0  0  0  0  0  0  0  0  0  0  0
   -2.4237   -1.9007    0.0000 C   0  0  0  0  0  0  0  0  0  0  0  0
   -1.5987   -1.9007    0.0000 C   0  0  0  0  0  0  0  0  0  0  0  0
   -1.1862   -2.6151    0.0000 C   0  0  0  0  0  0  0  0  0  0  0  0
   -0.3612   -2.6151    0.0000 Cl  0  0  0  0  0  0  0  0  0  0  0  0
  1  2  1  0  0  0  0
  2  3  1  0  0  0  0
  3  4  1  0  0  0  0
  3 30  1  0  0  0  0
  4  5  2  0  0  0  0
  4  6  1  0  0  0  0
  6  7  1  0  0  0  0
  7  8  1  0  0  0  0
  8  9  1  0  0  0  0
  9 10  1  0  0  0  0
  9 29  1  0  0  0  0
 10 11  1  0  0  0  0
 11 12  1  0  0  0  0
 12 13  1  0  0  0  0
 12 28  1  0  0  0  0
 13 14  1  0  0  0  0
 14 15  1  0  0  0  0
 15 16  1  0  0  0  0
 16 17  2  0  0  0  0
 16 18  1  0  0  0  0
 18 19  1  0  0  0  0
 18 21  1  0  0  0  0
 19 20  1  0  0  0  0
 21 22  2  0  0  0  0
 21 26  1  0  0  0  0
 22 23  1  0  0  0  0
 23 24  2  0  0  0  0
 24 25  1  0  0  0  0
 25 26  2  0  0  0  0
 26 27  1  0  0  0  0
 28 29  1  0  0  0  0
 30 31  2  0  0  0  0
 30 35  1  0  0  0  0
 31 32  1  0  0  0  0
 32 33  2  0  0  0  0
 33 34  1  0  0  0  0
 34 35  2  0  0  0  0
 35 36  1  0  0  0  0
M  END
$$$$

 OpenBabel12191814062D

 36 38  0  0  0  0  0  0  0  0999 V2000
   -2.4237   -4.7586    0.0000 C   0  0  0  0  0  0  0  0  0  0  0  0
   -1.5987   -4.7586    0.0000 C   0  0  0  0  0  0  0  0  0  0  0  0
   -1.1862   -4.0441    0.0000 C   0  0  3  0  0  0  0  0  0  0  0  0
   -0.3612   -4.0441    0.0000 C   0  0  0  0  0  0  0  0  0  0  0  0
    0.0513   -3.3296    0.0000 O   0  0  0  0  0  0  0  0  0  0  0  0
    0.0513   -4.7586    0.0000 O   0  0  0  0  0  0  0  0  0  0  0  0
    0.8763   -4.7586    0.0000 C   0  0  0  0  0  0  0  0  0  0  0  0
    1.2888   -5.4730    0.0000 C   0  0  0  0  0  0  0  0  0  0  0  0
    2.1138   -5.4730    0.0000 N   0  0  0  0  0  0  0  0  0  0  0  0
    2.5263   -4.7586    0.0000 C   0  0  0  0  0  0  0  0  0  0  0  0
    3.3513   -4.7586    0.0000 C   0  0  0  0  0  0  0  0  0  0  0  0
    3.7638   -5.4730    0.0000 N   0  0  0  0  0  0  0  0  0  0  0  0
    4.5888   -5.4730    0.0000 C   0  0  0  0  0  0  0  0  0  0  0  0
    5.0013   -6.1875    0.0000 C   0  0  0  0  0  0  0  0  0  0  0  0
    5.8263   -6.1875    0.0000 O   0  0  0  0  0  0  0  0  0  0  0  0
    6.2388   -6.9020    0.0000 C   0  0  0  0  0  0  0  0  0  0  0  0
    5.8263   -7.6164    0.0000 O   0  0  0  0  0  0  0  0  0  0  0  0
    7.0638   -6.9020    0.0000 C   0  0  3  0  0  0  0  0  0  0  0  0
    7.4763   -6.1875    0.0000 C   0  0  0  0  0  0  0  0  0  0  0  0
    8.3013   -6.1875    0.0000 C   0  0  0  0  0  0  0  0  0  0  0  0
    7.4763   -7.6164    0.0000 C   0  0  0  0  0  0  0  0  0  0  0  0
    8.3013   -7.6164    0.0000 C   0  0  0  0  0  0  0  0  0  0  0  0
    8.7138   -8.3309    0.0000 C   0  0  0  0  0  0  0  0  0  0  0  0
    8.3013   -9.0454    0.0000 C   0  0  0  0  0  0  0  0  0  0  0  0
    7.4763   -9.0454    0.0000 C   0  0  0  0  0  0  0  0  0  0  0  0
    7.0638   -8.3309    0.0000 C   0  0  0  0  0  0  0  0  0  0  0  0
    6.2388   -8.3309    0.0000 F   0  0  0  0  0  0  0  0  0  0  0  0
    3.3513   -6.1875    0.0000 C   0  0  0  0  0  0  0  0  0  0  0  0
    2.5263   -6.1875    0.0000 C   0  0  0  0  0  0  0  0  0  0  0  0
   -1.5987   -3.3296    0.0000 C   0  0  0  0  0  0  0  0  0  0  0  0
   -2.4237   -3.3296    0.0000 C   0  0  0  0  0  0  0  0  0  0  0  0
   -2.8362   -2.6151    0.0000 C   0  0  0  0  0  0  0  0  0  0  0  0
   -2.4237   -1.9007    0.0000 C   0  0  0  0  0  0  0  0  0  0  0  0
   -1.5987   -1.9007    0.0000 C   0  0  0  0  0  0  0  0  0  0  0  0
   -1.1862   -2.6151    0.0000 C   0  0  0  0  0  0  0  0  0  0  0  0
   -0.3612   -2.6151    0.0000 F   0  0  0  0  0  0  0  0  0  0  0  0
  1  2  1  0  0  0  0
  2  3  1  0  0  0  0
  3  4  1  0  0  0  0
  3 30  1  0  0  0  0
  4  5  2  0  0  0  0
  4  6  1  0  0  0  0
  6  7  1  0  0  0  0
  7  8  1  0  0  0  0
  8  9  1  0  0  0  0
  9 10  1  0  0  0  0
  9 29  1  0  0  0  0
 10 11  1  0  0  0  0
 11 12  1  0  0  0  0
 12 13  1  0  0  0  0
 12 28  1  0  0  0  0
 13 14  1  0  0  0  0
 14 15  1  0  0  0  0
 15 16  1  0  0  0  0
 16 17  2  0  0  0  0
 16 18  1  0  0  0  0
 18 19  1  0  0  0  0
 18 21  1  0  0  0  0
 19 20  1  0  0  0  0
 21 22  2  0  0  0  0
 21 26  1  0  0  0  0
 22 23  1  0  0  0  0
 23 24  2  0  0  0  0
 24 25  1  0  0  0  0
 25 26  2  0  0  0  0
 26 27  1  0  0  0  0
 28 29  1  0  0  0  0
 30 31  2  0  0  0  0
 30 35  1  0  0  0  0
 31 32  1  0  0  0  0
 32 33  2  0  0  0  0
 33 34  1  0  0  0  0
 34 35  2  0  0  0  0
 35 36  1  0  0  0  0
M  END
$$$$

 OpenBabel12191814062D

 31 33  0  0  0  0  0  0  0  0999 V2000
    0.0000   -2.4750    0.0000 C   0  0  0  0  0  0  0  0  0  0  0  0
    0.7145   -2.0625    0.0000 C   0  0  0  0  0  0  0  0  0  0  0  0
    0.7145   -1.2375    0.0000 C   0  0  3  0  0  0  0  0  0  0  0  0
    1.4289   -0.8250    0.0000 C   0  0  0  0  0  0  0  0  0  0  0  0
    1.4289   -0.0000    0.0000 O   0  0  0  0  0  0  0  0  0  0  0  0
    2.1434   -1.2375    0.0000 O   0  0  0  0  0  0  0  0  0  0  0  0
    2.8579   -0.8250    0.0000 C   0  0  0  0  0  0  0  0  0  0  0  0
    3.5724   -1.2375    0.0000 C   0  0  0  0  0  0  0  0  0  0  0  0
    4.2868   -0.8250    0.0000 N   0  0  0  0  0  0  0  0  0  0  0  0
    4.2868    0.0000    0.0000 C   0  0  0  0  0  0  0  0  0  0  0  0
    5.0013    0.4125    0.0000 C   0  0  0  0  0  0  0  0  0  0  0  0
    5.7158    0.0000    0.0000 N   0  0  0  0  0  0  0  0  0  0  0  0
    6.4302    0.4125    0.0000 C   0  0  0  0  0  0  0  0  0  0  0  0
    7.1447   -0.0000    0.0000 C   0  0  0  0  0  0  0  0  0  0  0  0
    7.8592    0.4125    0.0000 O   0  0  0  0  0  0  0  0  0  0  0  0
    8.5737   -0.0000    0.0000 C   0  0  0  0  0  0  0  0  0  0  0  0
    9.2881    0.4125    0.0000 C   0  0  0  0  0  0  0  0  0  0  0  0
   10.0026   -0.0000    0.0000 C   0  0  0  0  0  0  0  0  0  0  0  0
   10.0026   -0.8250    0.0000 C   0  0  0  0  0  0  0  0  0  0  0  0
   10.7171   -1.2375    0.0000 O   0  0  0  0  0  0  0  0  0  0  0  0
   10.7171   -2.0625    0.0000 C   0  0  0  0  0  0  0  0  0  0  0  0
    9.2881   -1.2375    0.0000 C   0  0  0  0  0  0  0  0  0  0  0  0
    8.5737   -0.8250    0.0000 C   0  0  0  0  0  0  0  0  0  0  0  0
    5.7158   -0.8250    0.0000 C   0  0  0  0  0  0  0  0  0  0  0  0
    5.0013   -1.2375    0.0000 C   0  0  0  0  0  0  0  0  0  0  0  0
    0.0000   -0.8250    0.0000 C   0  0  0  0  0  0  0  0  0  0  0  0
   -0.7145   -1.2375    0.0000 C   0  0  0  0  0  0  0  0  0  0  0  0
   -1.4289   -0.8250    0.0000 C   0  0  0  0  0  0  0  0  0  0  0  0
   -1.4289   -0.0000    0.0000 C   0  0  0  0  0  0  0  0  0  0  0  0
   -0.7145    0.4125    0.0000 C   0  0  0  0  0  0  0  0  0  0  0  0
    0.0000   -0.0000    0.0000 C   0  0  0  0  0  0  0  0  0  0  0  0
  1  2  1  0  0  0  0
  2  3  1  0  0  0  0
  3  4  1  0  0  0  0
  3 26  1  0  0  0  0
  4  5  2  0  0  0  0
  4  6  1  0  0  0  0
  6  7  1  0  0  0  0
  7  8  1  0  0  0  0
  8  9  1  0  0  0  0
  9 10  1  0  0  0  0
  9 25  1  0  0  0  0
 10 11  1  0  0  0  0
 11 12  1  0  0  0  0
 12 13  1  0  0  0  0
 12 24  1  0  0  0  0
 13 14  1  0  0  0  0
 14 15  1  0  0  0  0
 15 16  1  0  0  0  0
 16 17  2  0  0  0  0
 16 23  1  0  0  0  0
 17 18  1  0  0  0  0
 18 19  2  0  0  0  0
 19 20  1  0  0  0  0
 19 22  1  0  0  0  0
 20 21  1  0  0  0  0
 22 23  2  0  0  0  0
 24 25  1  0  0  0  0
 26 27  2  0  0  0  0
 26 31  1  0  0  0  0
 27 28  1  0  0  0  0
 28 29  2  0  0  0  0
 29 30  1  0  0  0  0
 30 31  2  0  0  0  0
M  END
$$$$

 OpenBabel12191814062D

 27 29  0  0  0  0  0  0  0  0999 V2000
    0.0000   -2.4750    0.0000 C   0  0  0  0  0  0  0  0  0  0  0  0
    0.7145   -2.0625    0.0000 C   0  0  0  0  0  0  0  0  0  0  0  0
    0.7145   -1.2375    0.0000 C   0  0  3  0  0  0  0  0  0  0  0  0
    1.4289   -0.8250    0.0000 C   0  0  0  0  0  0  0  0  0  0  0  0
    1.4289   -0.0000    0.0000 O   0  0  0  0  0  0  0  0  0  0  0  0
    2.1434   -1.2375    0.0000 O   0  0  0  0  0  0  0  0  0  0  0  0
    2.8579   -0.8250    0.0000 C   0  0  0  0  0  0  0  0  0  0  0  0
    3.5724   -1.2375    0.0000 C   0  0  0  0  0  0  0  0  0  0  0  0
    4.2868   -0.8250    0.0000 N   0  0  0  0  0  0  0  0  0  0  0  0
    4.2868    0.0000    0.0000 C   0  0  0  0  0  0  0  0  0  0  0  0
    5.0013    0.4125    0.0000 C   0  0  0  0  0  0  0  0  0  0  0  0
    5.7158    0.0000    0.0000 O   0  0  0  0  0  0  0  0  0  0  0  0
    5.7158   -0.8250    0.0000 C   0  0  3  0  0  0  0  0  0  0  0  0
    5.0013   -1.2375    0.0000 C   0  0  3  0  0  0  0  0  0  0  0  0
    5.0013   -2.0625    0.0000 C   0  0  0  0  0  0  0  0  0  0  0  0
    6.4302   -1.2375    0.0000 C   0  0  0  0  0  0  0  0  0  0  0  0
    7.1447   -0.8250    0.0000 C   0  0  0  0  0  0  0  0  0  0  0  0
    7.8592   -1.2375    0.0000 C   0  0  0  0  0  0  0  0  0  0  0  0
    7.8592   -2.0625    0.0000 C   0  0  0  0  0  0  0  0  0  0  0  0
    7.1447   -2.4750    0.0000 C   0  0  0  0  0  0  0  0  0  0  0  0
    6.4302   -2.0625    0.0000 C   0  0  0  0  0  0  0  0  0  0  0  0
    0.0000   -0.8250    0.0000 C   0  0  0  0  0  0  0  0  0  0  0  0
   -0.7145   -1.2375    0.0000 C   0  0  0  0  0  0  0  0  0  0  0  0
   -1.4289   -0.8250    0.0000 C   0  0  0  0  0  0  0  0  0  0  0  0
   -1.4289   -0.0000    0.0000 C   0  0  0  0  0  0  0  0  0  0  0  0
   -0.7145    0.4125    0.0000 C   0  0  0  0  0  0  0  0  0  0  0  0
    0.0000   -0.0000    0.0000 C   0  0  0  0  0  0  0  0  0  0  0  0
  1  2  1  0  0  0  0
  2  3  1  0  0  0  0
  3  4  1  0  0  0  0
  3 22  1  0  0  0  0
  4  5  2  0  0  0  0
  4  6  1  0  0  0  0
  6  7  1  0  0  0  0
  7  8  1  0  0  0  0
  8  9  1  0  0  0  0
  9 10  1  0  0  0  0
  9 14  1  0  0  0  0
 10 11  1  0  0  0  0
 11 12  1  0  0  0  0
 12 13  1  0  0  0  0
 13 14  1  0  0  0  0
 13 16  1  0  0  0  0
 14 15  1  0  0  0  0
 16 17  2  0  0  0  0
 16 21  1  0  0  0  0
 17 18  1  0  0  0  0
 18 19  2  0  0  0  0
 19 20  1  0  0  0  0
 20 21  2  0  0  0  0
 22 23  2  0  0  0  0
 22 27  1  0  0  0  0
 23 24  1  0  0  0  0
 24 25  2  0  0  0  0
 25 26  1  0  0  0  0
 26 27  2  0  0  0  0
M  END
$$$$

 OpenBabel12191814062D

 30 32  0  0  0  0  0  0  0  0999 V2000
    0.0000   -4.9500    0.0000 C   0  0  0  0  0  0  0  0  0  0  0  0
    0.7145   -4.5375    0.0000 C   0  0  0  0  0  0  0  0  0  0  0  0
    0.7145   -3.7125    0.0000 C   0  0  0  0  0  0  0  0  0  0  0  0
    1.5395   -3.7125    0.0000 C   0  0  0  0  0  0  0  0  0  0  0  0
   -0.1105   -3.7125    0.0000 C   0  0  0  0  0  0  0  0  0  0  0  0
    0.7145   -2.8875    0.0000 C   0  0  0  0  0  0  0  0  0  0  0  0
    0.0000   -2.4750    0.0000 O   0  0  0  0  0  0  0  0  0  0  0  0
    1.4289   -2.4750    0.0000 O   0  0  0  0  0  0  0  0  0  0  0  0
    1.4289   -1.6500    0.0000 C   0  0  3  0  0  0  0  0  0  0  0  0
    0.7145   -1.2375    0.0000 C   0  0  0  0  0  0  0  0  0  0  0  0
    0.7145   -0.4125    0.0000 C   0  0  3  0  0  0  0  0  0  0  0  0
    0.0000    0.0000    0.0000 C   0  0  0  0  0  0  0  0  0  0  0  0
    1.4289    0.0000    0.0000 C   0  0  0  0  0  0  0  0  0  0  0  0
    2.1434   -0.4125    0.0000 C   0  0  0  0  0  0  0  0  0  0  0  0
    2.8579    0.0000    0.0000 C   0  0  0  0  0  0  0  0  0  0  0  0
    3.5724   -0.4125    0.0000 C   0  0  0  0  0  0  0  0  0  0  0  0
    3.5724   -1.2375    0.0000 C   0  0  3  0  0  0  0  0  0  0  0  0
    4.2868   -1.6500    0.0000 C   0  0  0  0  0  0  0  0  0  0  0  0
    2.8579   -1.6500    0.0000 C   0  0  3  0  0  0  0  0  0  0  0  0
    2.8579   -2.4750    0.0000 C   0  0  0  0  0  0  0  0  0  0  0  0
    3.5724   -2.8875    0.0000 C   0  0  0  0  0  0  0  0  0  0  0  0
    3.5724   -3.7125    0.0000 C   0  0  3  0  0  0  0  0  0  0  0  0
    2.8579   -4.1250    0.0000 C   0  0  0  0  0  0  0  0  0  0  0  0
    2.8579   -4.9500    0.0000 C   0  0  3  0  0  0  0  0  0  0  0  0
    2.1434   -5.3625    0.0000 O   0  0  0  0  0  0  0  0  0  0  0  0
    3.5724   -5.3625    0.0000 C   0  0  0  0  0  0  0  0  0  0  0  0
    4.2868   -4.9500    0.0000 C   0  0  0  0  0  0  0  0  0  0  0  0
    5.0013   -5.3625    0.0000 O   0  0  0  0  0  0  0  0  0  0  0  0
    4.2868   -4.1250    0.0000 O   0  0  0  0  0  0  0  0  0  0  0  0
    2.1434   -1.2375    0.0000 C   0  0  3  0  0  0  0  0  0  0  0  0
  1  2  1  0  0  0  0
  2  3  1  0  0  0  0
  3  4  1  0  0  0  0
  3  5  1  0  0  0  0
  3  6  1  0  0  0  0
  6  7  2  0  0  0  0
  6  8  1  0  0  0  0
  8  9  1  0  0  0  0
  9 10  1  0  0  0  0
  9 30  1  0  0  0  0
 10 11  1  0  0  0  0
 11 12  1  0  0  0  0
 11 13  1  0  0  0  0
 13 14  2  0  0  0  0
 14 15  1  0  0  0  0
 14 30  1  0  0  0  0
 15 16  2  0  0  0  0
 16 17  1  0  0  0  0
 17 18  1  0  0  0  0
 17 19  1  0  0  0  0
 19 20  1  0  0  0  0
 19 30  1  0  0  0  0
 20 21  1  0  0  0  0
 21 22  1  0  0  0  0
 22 23  1  0  0  0  0
 22 29  1  0  0  0  0
 23 24  1  0  0  0  0
 24 25  1  0  0  0  0
 24 26  1  0  0  0  0
 26 27  1  0  0  0  0
 27 28  2  0  0  0  0
 27 29  1  0  0  0  0
M  END
$$$$

 OpenBabel12191814062D

 32 34  0  0  0  0  0  0  0  0999 V2000
   -0.7145  -10.3125    0.0000 C   0  0  0  0  0  0  0  0  0  0  0  0
   -0.7145   -9.4875    0.0000 C   0  0  0  0  0  0  0  0  0  0  0  0
    0.0000   -9.0750    0.0000 C   0  0  0  0  0  0  0  0  0  0  0  0
    0.4125   -9.7895    0.0000 C   0  0  0  0  0  0  0  0  0  0  0  0
   -0.4125   -8.3605    0.0000 C   0  0  0  0  0  0  0  0  0  0  0  0
    0.7145   -8.6625    0.0000 C   0  0  0  0  0  0  0  0  0  0  0  0
    0.7145   -7.8375    0.0000 C   0  0  0  0  0  0  0  0  0  0  0  0
    1.4289   -7.4250    0.0000 C   0  0  0  0  0  0  0  0  0  0  0  0
    2.1434   -7.8375    0.0000 C   0  0  0  0  0  0  0  0  0  0  0  0
    2.8579   -7.4250    0.0000 O   0  0  0  0  0  0  0  0  0  0  0  0
    3.5724   -7.8375    0.0000 C   0  0  0  0  0  0  0  0  0  0  0  0
    4.2868   -7.4250    0.0000 C   0  0  0  0  0  0  0  0  0  0  0  0
    5.0013   -7.8375    0.0000 C   0  0  0  0  0  0  0  0  0  0  0  0
    5.7158   -7.4250    0.0000 C   0  0  0  0  0  0  0  0  0  0  0  0
    6.4302   -7.8375    0.0000 C   0  0  0  0  0  0  0  0  0  0  0  0
    7.1447   -7.4250    0.0000 C   0  0  0  0  0  0  0  0  0  0  0  0
    7.8592   -7.8375    0.0000 N   0  0  0  0  0  0  0  0  0  0  0  0
    8.5737   -7.4250    0.0000 C   0  0  0  0  0  0  0  0  0  0  0  0
    9.2881   -7.8375    0.0000 C   0  0  0  0  0  0  0  0  0  0  0  0
    9.2881   -8.6625    0.0000 N   0  0  0  0  0  0  0  0  0  0  0  0
    8.5737   -9.0750    0.0000 C   0  0  0  0  0  0  0  0  0  0  0  0
    7.8592   -8.6625    0.0000 C   0  0  0  0  0  0  0  0  0  0  0  0
   10.0026   -9.0750    0.0000 C   0  0  0  0  0  0  0  0  0  0  0  0
   10.7171   -8.6625    0.0000 C   0  0  0  0  0  0  0  0  0  0  0  0
   11.4315   -9.0750    0.0000 C   0  0  0  0  0  0  0  0  0  0  0  0
   11.4315   -9.9000    0.0000 C   0  0  0  0  0  0  0  0  0  0  0  0
   12.1460  -10.3125    0.0000 C   0  0  0  0  0  0  0  0  0  0  0  0
   10.7171  -10.3125    0.0000 C   0  0  0  0  0  0  0  0  0  0  0  0
   10.7171  -11.1375    0.0000 Cl  0  0  0  0  0  0  0  0  0  0  0  0
   10.0026   -9.9000    0.0000 C   0  0  0  0  0  0  0  0  0  0  0  0
    2.1434   -8.6625    0.0000 C   0  0  0  0  0  0  0  0  0  0  0  0
    1.4289   -9.0750    0.0000 C   0  0  0  0  0  0  0  0  0  0  0  0
  1  2  1  0  0  0  0
  2  3  1  0  0  0  0
  3  4  1  0  0  0  0
  3  5  1  0  0  0  0
  3  6  1  0  0  0  0
  6  7  2  0  0  0  0
  6 32  1  0  0  0  0
  7  8  1  0  0  0  0
  8  9  2  0  0  0  0
  9 10  1  0  0  0  0
  9 31  1  0  0  0  0
 10 11  1  0  0  0  0
 11 12  1  0  0  0  0
 12 13  1  0  0  0  0
 13 14  1  0  0  0  0
 14 15  1  0  0  0  0
 15 16  1  0  0  0  0
 16 17  1  0  0  0  0
 17 18  1  0  0  0  0
 17 22  1  0  0  0  0
 18 19  1  0  0  0  0
 19 20  1  0  0  0  0
 20 21  1  0  0  0  0
 20 23  1  0  0  0  0
 21 22  1  0  0  0  0
 23 24  2  0  0  0  0
 23 30  1  0  0  0  0
 24 25  1  0  0  0  0
 25 26  2  0  0  0  0
 26 27  1  0  0  0  0
 26 28  1  0  0  0  0
 28 29  1  0  0  0  0
 28 30  2  0  0  0  0
 31 32  2  0  0  0  0
M  END
$$$$

 OpenBabel12191814062D

 51 53  0  0  0  0  0  0  0  0999 V2000
   -1.9696   -2.6781    0.0000 C   0  0  0  0  0  0  0  0  0  0  0  0
   -1.2552   -3.0906    0.0000 C   0  0  0  0  0  0  0  0  0  0  0  0
   -0.5407   -2.6781    0.0000 C   0  0  3  0  0  0  0  0  0  0  0  0
   -0.5407   -1.8531    0.0000 C   0  0  0  0  0  0  0  0  0  0  0  0
    0.1738   -3.0906    0.0000 C   0  0  0  0  0  0  0  0  0  0  0  0
    0.1738   -3.9156    0.0000 O   0  0  0  0  0  0  0  0  0  0  0  0
    0.8882   -2.6781    0.0000 O   0  0  0  0  0  0  0  0  0  0  0  0
    1.6027   -3.0906    0.0000 C   0  0  3  0  0  0  0  0  0  0  0  0
    2.1861   -2.5072    0.0000 C   0  0  3  0  0  0  0  0  0  0  0  0
    1.7367   -1.8153    0.0000 C   0  0  3  0  0  0  0  0  0  0  0  0
    0.9129   -1.7721    0.0000 O   0  0  0  0  0  0  0  0  0  0  0  0
    2.2559   -1.1742    0.0000 C   0  0  3  0  0  0  0  0  0  0  0  0
    1.5640   -0.7248    0.0000 C   0  0  0  0  0  0  0  0  0  0  0  0
    3.0261   -1.4698    0.0000 C   0  0  0  0  0  0  0  0  0  0  0  0
    2.9830   -2.2937    0.0000 C   0  0  3  0  0  0  0  0  0  0  0  0
    3.6504   -1.8088    0.0000 O   0  0  0  0  0  0  0  0  0  0  0  0
    3.7799   -2.5072    0.0000 C   0  0  0  0  0  0  0  0  0  0  0  0
    4.1924   -1.7928    0.0000 O   0  0  0  0  0  0  0  0  0  0  0  0
    4.3632   -3.0906    0.0000 C   0  0  3  0  0  0  0  0  0  0  0  0
    5.1601   -2.8771    0.0000 C   0  0  0  0  0  0  0  0  0  0  0  0
    4.1497   -3.8875    0.0000 C   0  0  0  0  0  0  0  0  0  0  0  0
    4.3632   -4.6844    0.0000 C   0  0  0  0  0  0  0  0  0  0  0  0
    3.7799   -5.2677    0.0000 C   0  0  0  0  0  0  0  0  0  0  0  0
    3.7079   -6.0896    0.0000 C   0  0  0  0  0  0  0  0  0  0  0  0
    4.5276   -5.6164    0.0000 C   0  0  0  0  0  0  0  0  0  0  0  0
    2.9830   -5.4813    0.0000 C   0  0  3  0  0  0  0  0  0  0  0  0
    2.9830   -6.3063    0.0000 O   0  0  0  0  0  0  0  0  0  0  0  0
    2.2685   -6.7188    0.0000 C   0  0  0  0  0  0  0  0  0  0  0  0
    2.2685   -7.5438    0.0000 C   0  0  0  0  0  0  0  0  0  0  0  0
    1.5540   -6.3063    0.0000 O   0  0  0  0  0  0  0  0  0  0  0  0
    2.1861   -5.2677    0.0000 C   0  0  3  0  0  0  0  0  0  0  0  0
    1.7736   -5.9822    0.0000 O   0  0  0  0  0  0  0  0  0  0  0  0
    0.9486   -5.9822    0.0000 C   0  0  0  0  0  0  0  0  0  0  0  0
    0.5361   -5.2677    0.0000 C   0  0  0  0  0  0  0  0  0  0  0  0
    0.5361   -6.6967    0.0000 O   0  0  0  0  0  0  0  0  0  0  0  0
    1.6027   -4.6844    0.0000 C   0  0  3  0  0  0  0  0  0  0  0  0
    0.8882   -5.0969    0.0000 O   0  0  0  0  0  0  0  0  0  0  0  0
    0.1738   -4.6844    0.0000 C   0  0  0  0  0  0  0  0  0  0  0  0
   -0.3112   -4.0169    0.0000 O   0  0  0  0  0  0  0  0  0  0  0  0
   -0.5407   -5.0969    0.0000 C   0  0  0  0  0  0  0  0  0  0  0  0
   -0.5407   -5.9219    0.0000 C   0  0  0  0  0  0  0  0  0  0  0  0
   -1.2552   -6.3344    0.0000 C   0  0  0  0  0  0  0  0  0  0  0  0
   -1.9696   -5.9219    0.0000 C   0  0  0  0  0  0  0  0  0  0  0  0
   -1.9696   -5.0969    0.0000 C   0  0  0  0  0  0  0  0  0  0  0  0
   -1.2552   -4.6844    0.0000 C   0  0  0  0  0  0  0  0  0  0  0  0
    1.3892   -3.8875    0.0000 C   0  0  0  0  0  0  0  0  0  0  0  0
    0.5642   -3.8875    0.0000 C   0  0  0  0  0  0  0  0  0  0  0  0
    2.6305   -0.4391    0.0000 O   0  0  0  0  0  0  0  0  0  0  0  0
    2.1812    0.2528    0.0000 C   0  0  0  0  0  0  0  0  0  0  0  0
    1.3573    0.2096    0.0000 C   0  0  0  0  0  0  0  0  0  0  0  0
    2.5557    0.9879    0.0000 O   0  0  0  0  0  0  0  0  0  0  0  0
  1  2  1  0  0  0  0
  2  3  1  0  0  0  0
  3  4  1  0  0  0  0
  3  5  1  0  0  0  0
  5  6  2  0  0  0  0
  5  7  1  0  0  0  0
  7  8  1  0  0  0  0
  8  9  1  0  0  0  0
  8 46  1  0  0  0  0
  9 10  1  0  0  0  0
  9 15  1  0  0  0  0
 10 11  1  0  0  0  0
 10 12  1  0  0  0  0
 12 13  1  0  0  0  0
 12 14  1  0  0  0  0
 12 48  1  0  0  0  0
 14 15  1  0  0  0  0
 15 16  1  0  0  0  0
 15 17  1  0  0  0  0
 17 18  2  0  0  0  0
 17 19  1  0  0  0  0
 19 20  1  0  0  0  0
 19 21  1  0  0  0  0
 21 22  2  0  0  0  0
 22 23  1  0  0  0  0
 23 24  1  0  0  0  0
 23 25  1  0  0  0  0
 23 26  1  0  0  0  0
 26 27  1  0  0  0  0
 26 31  1  0  0  0  0
 27 28  1  0  0  0  0
 28 29  1  0  0  0  0
 28 30  2  0  0  0  0
 31 32  1  0  0  0  0
 31 36  1  0  0  0  0
 32 33  1  0  0  0  0
 33 34  1  0  0  0  0
 33 35  2  0  0  0  0
 36 37  1  0  0  0  0
 36 46  1  0  0  0  0
 37 38  1  0  0  0  0
 38 39  2  0  0  0  0
 38 40  1  0  0  0  0
 40 41  2  0  0  0  0
 40 45  1  0  0  0  0
 41 42  1  0  0  0  0
 42 43  2  0  0  0  0
 43 44  1  0  0  0  0
 44 45  2  0  0  0  0
 46 47  2  0  0  0  0
 48 49  1  0  0  0  0
 49 50  1  0  0  0  0
 49 51  2  0  0  0  0
M  END
$$$$

 OpenBabel12191814062D

 47 49  0  0  0  0  0  0  0  0999 V2000
    0.1251   -1.0707    0.0000 C   0  0  0  0  0  0  0  0  0  0  0  0
    0.1251   -1.8957    0.0000 C   0  0  0  0  0  0  0  0  0  0  0  0
    0.8396   -2.3082    0.0000 C   0  0  3  0  0  0  0  0  0  0  0  0
    0.8396   -3.1332    0.0000 C   0  0  0  0  0  0  0  0  0  0  0  0
    1.5540   -1.8957    0.0000 C   0  0  0  0  0  0  0  0  0  0  0  0
    1.5540   -1.0707    0.0000 O   0  0  0  0  0  0  0  0  0  0  0  0
    2.2685   -2.3082    0.0000 O   0  0  0  0  0  0  0  0  0  0  0  0
    2.2685   -3.1332    0.0000 C   0  0  3  0  0  0  0  0  0  0  0  0
    3.0654   -3.3468    0.0000 C   0  0  3  0  0  0  0  0  0  0  0  0
    3.4399   -2.6117    0.0000 C   0  0  3  0  0  0  0  0  0  0  0  0
    3.0654   -1.8766    0.0000 O   0  0  0  0  0  0  0  0  0  0  0  0
    4.2548   -2.7408    0.0000 C   0  0  3  0  0  0  0  0  0  0  0  0
    4.8381   -2.1574    0.0000 C   0  0  0  0  0  0  0  0  0  0  0  0
    4.3838   -3.5556    0.0000 C   0  0  0  0  0  0  0  0  0  0  0  0
    3.6487   -3.9301    0.0000 C   0  0  3  0  0  0  0  0  0  0  0  0
    4.4024   -4.2657    0.0000 O   0  0  0  0  0  0  0  0  0  0  0  0
    3.8623   -4.7270    0.0000 C   0  0  0  0  0  0  0  0  0  0  0  0
    4.6873   -4.7270    0.0000 O   0  0  0  0  0  0  0  0  0  0  0  0
    3.6487   -5.5239    0.0000 C   0  0  3  0  0  0  0  0  0  0  0  0
    4.2321   -6.1073    0.0000 C   0  0  0  0  0  0  0  0  0  0  0  0
    2.8519   -5.7374    0.0000 C   0  0  0  0  0  0  0  0  0  0  0  0
    2.2685   -6.3208    0.0000 C   0  0  0  0  0  0  0  0  0  0  0  0
    1.4716   -6.1073    0.0000 C   0  0  0  0  0  0  0  0  0  0  0  0
    1.5435   -6.9291    0.0000 C   0  0  0  0  0  0  0  0  0  0  0  0
    0.7239   -6.4559    0.0000 C   0  0  0  0  0  0  0  0  0  0  0  0
    0.8882   -5.5239    0.0000 C   0  0  3  0  0  0  0  0  0  0  0  0
    0.1738   -5.9364    0.0000 O   0  0  0  0  0  0  0  0  0  0  0  0
    0.1738   -6.7614    0.0000 C   0  0  0  0  0  0  0  0  0  0  0  0
   -0.5407   -7.1739    0.0000 C   0  0  0  0  0  0  0  0  0  0  0  0
    0.8882   -7.1739    0.0000 O   0  0  0  0  0  0  0  0  0  0  0  0
    0.6747   -4.7270    0.0000 C   0  0  3  0  0  0  0  0  0  0  0  0
   -0.1503   -4.7270    0.0000 O   0  0  0  0  0  0  0  0  0  0  0  0
   -0.5628   -5.4415    0.0000 C   0  0  0  0  0  0  0  0  0  0  0  0
   -0.1503   -6.1560    0.0000 C   0  0  0  0  0  0  0  0  0  0  0  0
   -1.3878   -5.4415    0.0000 O   0  0  0  0  0  0  0  0  0  0  0  0
    0.8882   -3.9301    0.0000 C   0  0  3  0  0  0  0  0  0  0  0  0
    0.1738   -3.5176    0.0000 O   0  0  0  0  0  0  0  0  0  0  0  0
   -0.5407   -3.9301    0.0000 C   0  0  0  0  0  0  0  0  0  0  0  0
   -0.5407   -4.7551    0.0000 O   0  0  0  0  0  0  0  0  0  0  0  0
   -1.2552   -3.5176    0.0000 C   0  0  0  0  0  0  0  0  0  0  0  0
   -1.9696   -3.9301    0.0000 C   0  0  0  0  0  0  0  0  0  0  0  0
   -2.6841   -3.5176    0.0000 C   0  0  0  0  0  0  0  0  0  0  0  0
   -2.6841   -2.6926    0.0000 C   0  0  0  0  0  0  0  0  0  0  0  0
   -1.9696   -2.2801    0.0000 C   0  0  0  0  0  0  0  0  0  0  0  0
   -1.2552   -2.6926    0.0000 C   0  0  0  0  0  0  0  0  0  0  0  0
    1.4716   -3.3468    0.0000 C   0  0  0  0  0  0  0  0  0  0  0  0
    1.0591   -2.6323    0.0000 C   0  0  0  0  0  0  0  0  0  0  0  0
  1  2  1  0  0  0  0
  2  3  1  0  0  0  0
  3  4  1  0  0  0  0
  3  5  1  0  0  0  0
  5  6  2  0  0  0  0
  5  7  1  0  0  0  0
  7  8  1  0  0  0  0
  8  9  1  0  0  0  0
  8 46  1  0  0  0  0
  9 10  1  0  0  0  0
  9 15  1  0  0  0  0
 10 11  1  0  0  0  0
 10 12  1  0  0  0  0
 12 13  1  0  0  0  0
 12 14  1  0  0  0  0
 14 15  1  0  0  0  0
 15 16  1  0  0  0  0
 15 17  1  0  0  0  0
 17 18  2  0  0  0  0
 17 19  1  0  0  0  0
 19 20  1  0  0  0  0
 19 21  1  0  0  0  0
 21 22  2  0  0  0  0
 22 23  1  0  0  0  0
 23 24  1  0  0  0  0
 23 25  1  0  0  0  0
 23 26  1  0  0  0  0
 26 27  1  0  0  0  0
 26 31  1  0  0  0  0
 27 28  1  0  0  0  0
 28 29  1  0  0  0  0
 28 30  2  0  0  0  0
 31 32  1  0  0  0  0
 31 36  1  0  0  0  0
 32 33  1  0  0  0  0
 33 34  1  0  0  0  0
 33 35  2  0  0  0  0
 36 37  1  0  0  0  0
 36 46  1  0  0  0  0
 37 38  1  0  0  0  0
 38 39  2  0  0  0  0
 38 40  1  0  0  0  0
 40 41  2  0  0  0  0
 40 45  1  0  0  0  0
 41 42  1  0  0  0  0
 42 43  2  0  0  0  0
 43 44  1  0  0  0  0
 44 45  2  0  0  0  0
 46 47  2  0  0  0  0
M  END
$$$$

 OpenBabel12191814062D

 29 31  0  0  0  0  0  0  0  0999 V2000
    2.8579    0.0000    0.0000 C   0  0  0  0  0  0  0  0  0  0  0  0
    3.5724    0.4125    0.0000 C   0  0  0  0  0  0  0  0  0  0  0  0
    4.2868    0.0000    0.0000 C   0  0  3  0  0  0  0  0  0  0  0  0
    4.2868   -0.8250    0.0000 C   0  0  0  0  0  0  0  0  0  0  0  0
    5.0013    0.4125    0.0000 C   0  0  0  0  0  0  0  0  0  0  0  0
    5.0013    1.2375    0.0000 O   0  0  0  0  0  0  0  0  0  0  0  0
    5.7158    0.0000    0.0000 O   0  0  0  0  0  0  0  0  0  0  0  0
    6.4302    0.4125    0.0000 C   0  0  3  0  0  0  0  0  0  0  0  0
    6.4302    1.2375    0.0000 C   0  0  0  0  0  0  0  0  0  0  0  0
    7.1447    1.6500    0.0000 C   0  0  3  0  0  0  0  0  0  0  0  0
    7.1447    2.4750    0.0000 C   0  0  0  0  0  0  0  0  0  0  0  0
    7.8592    1.2375    0.0000 C   0  0  0  0  0  0  0  0  0  0  0  0
    7.8592    0.4125    0.0000 C   0  0  0  0  0  0  0  0  0  0  0  0
    8.5737    0.0000    0.0000 C   0  0  0  0  0  0  0  0  0  0  0  0
    8.5737   -0.8250    0.0000 C   0  0  0  0  0  0  0  0  0  0  0  0
    7.8592   -1.2375    0.0000 C   0  0  3  0  0  0  0  0  0  0  0  0
    7.8592   -2.0625    0.0000 C   0  0  0  0  0  0  0  0  0  0  0  0
    7.1447   -0.8250    0.0000 C   0  0  3  0  0  0  0  0  0  0  0  0
    6.4302   -1.2375    0.0000 C   0  0  0  0  0  0  0  0  0  0  0  0
    6.4302   -2.0625    0.0000 C   0  0  0  0  0  0  0  0  0  0  0  0
    5.7158   -2.4750    0.0000 C   0  0  3  0  0  0  0  0  0  0  0  0
    5.0013   -2.0625    0.0000 C   0  0  0  0  0  0  0  0  0  0  0  0
    4.2868   -2.4750    0.0000 C   0  0  3  0  0  0  0  0  0  0  0  0
    3.5724   -2.0625    0.0000 O   0  0  0  0  0  0  0  0  0  0  0  0
    4.2868   -3.3000    0.0000 C   0  0  0  0  0  0  0  0  0  0  0  0
    5.0013   -3.7125    0.0000 C   0  0  0  0  0  0  0  0  0  0  0  0
    5.0013   -4.5375    0.0000 O   0  0  0  0  0  0  0  0  0  0  0  0
    5.7158   -3.3000    0.0000 O   0  0  0  0  0  0  0  0  0  0  0  0
    7.1447    0.0000    0.0000 C   0  0  3  0  0  0  0  0  0  0  0  0
  1  2  1  0  0  0  0
  2  3  1  0  0  0  0
  3  4  1  0  0  0  0
  3  5  1  0  0  0  0
  5  6  2  0  0  0  0
  5  7  1  0  0  0  0
  7  8  1  0  0  0  0
  8  9  1  0  0  0  0
  8 29  1  0  0  0  0
  9 10  1  0  0  0  0
 10 11  1  0  0  0  0
 10 12  1  0  0  0  0
 12 13  2  0  0  0  0
 13 14  1  0  0  0  0
 13 29  1  0  0  0  0
 14 15  2  0  0  0  0
 15 16  1  0  0  0  0
 16 17  1  0  0  0  0
 16 18  1  0  0  0  0
 18 19  1  0  0  0  0
 18 29  1  0  0  0  0
 19 20  1  0  0  0  0
 20 21  1  0  0  0  0
 21 22  1  0  0  0  0
 21 28  1  0  0  0  0
 22 23  1  0  0  0  0
 23 24  1  0  0  0  0
 23 25  1  0  0  0  0
 25 26  1  0  0  0  0
 26 27  2  0  0  0  0
 26 28  1  0  0  0  0
M  END
$$$$

 OpenBabel12191814062D

 28 31  0  0  0  0  0  0  0  0999 V2000
   -3.5724    1.2375    0.0000 C   0  0  0  0  0  0  0  0  0  0  0  0
   -2.8579    0.8250    0.0000 C   0  0  0  0  0  0  0  0  0  0  0  0
   -2.1434    1.2375    0.0000 C   0  0  3  0  0  0  0  0  0  0  0  0
   -2.1434    2.0625    0.0000 C   0  0  0  0  0  0  0  0  0  0  0  0
   -1.4289    0.8250    0.0000 C   0  0  0  0  0  0  0  0  0  0  0  0
   -0.7145    1.2375    0.0000 C   0  0  0  0  0  0  0  0  0  0  0  0
    0.0000    0.8250    0.0000 C   0  0  0  0  0  0  0  0  0  0  0  0
    0.0000    0.0000    0.0000 C   0  0  0  0  0  0  0  0  0  0  0  0
   -0.7145   -0.4125    0.0000 C   0  0  0  0  0  0  0  0  0  0  0  0
   -1.4289   -0.0000    0.0000 C   0  0  0  0  0  0  0  0  0  0  0  0
    0.7145   -0.4125    0.0000 C   0  0  3  0  0  0  0  0  0  0  0  0
    1.4289    0.0000    0.0000 N   0  0  0  0  0  0  0  0  0  0  0  0
    2.1434   -0.4125    0.0000 C   0  0  0  0  0  0  0  0  0  0  0  0
    2.8579    0.0000    0.0000 C   0  0  0  0  0  0  0  0  0  0  0  0
    3.5724   -0.4125    0.0000 C   0  0  0  0  0  0  0  0  0  0  0  0
    3.5724   -1.2375    0.0000 C   0  0  0  0  0  0  0  0  0  0  0  0
    2.8579   -1.6500    0.0000 C   0  0  0  0  0  0  0  0  0  0  0  0
    2.1434   -1.2375    0.0000 C   0  0  0  0  0  0  0  0  0  0  0  0
    1.4289   -1.6500    0.0000 C   0  0  0  0  0  0  0  0  0  0  0  0
    1.4289   -2.4750    0.0000 O   0  0  0  0  0  0  0  0  0  0  0  0
    0.7145   -1.2375    0.0000 N   0  0  0  0  0  0  0  0  0  0  0  0
    0.0000   -1.6500    0.0000 C   0  0  0  0  0  0  0  0  0  0  0  0
    0.0000   -2.4750    0.0000 C   0  0  0  0  0  0  0  0  0  0  0  0
   -0.7145   -2.8875    0.0000 C   0  0  0  0  0  0  0  0  0  0  0  0
   -1.4289   -2.4750    0.0000 C   0  0  0  0  0  0  0  0  0  0  0  0
   -2.1434   -2.8875    0.0000 Cl  0  0  0  0  0  0  0  0  0  0  0  0
   -1.4289   -1.6500    0.0000 C   0  0  0  0  0  0  0  0  0  0  0  0
   -0.7145   -1.2375    0.0000 C   0  0  0  0  0  0  0  0  0  0  0  0
  1  2  1  0  0  0  0
  2  3  1  0  0  0  0
  3  4  1  0  0  0  0
  3  5  1  0  0  0  0
  5  6  2  0  0  0  0
  5 10  1  0  0  0  0
  6  7  1  0  0  0  0
  7  8  2  0  0  0  0
  8  9  1  0  0  0  0
  8 11  1  0  0  0  0
  9 10  2  0  0  0  0
 11 12  1  0  0  0  0
 11 21  1  0  0  0  0
 12 13  1  0  0  0  0
 13 14  2  0  0  0  0
 13 18  1  0  0  0  0
 14 15  1  0  0  0  0
 15 16  2  0  0  0  0
 16 17  1  0  0  0  0
 17 18  2  0  0  0  0
 18 19  1  0  0  0  0
 19 20  2  0  0  0  0
 19 21  1  0  0  0  0
 21 22  1  0  0  0  0
 22 23  2  0  0  0  0
 22 28  1  0  0  0  0
 23 24  1  0  0  0  0
 24 25  2  0  0  0  0
 25 26  1  0  0  0  0
 25 27  1  0  0  0  0
 27 28  2  0  0  0  0
M  END
$$$$

 OpenBabel12191814062D

 30 33  0  0  0  0  0  0  0  0999 V2000
   -2.8579   -4.1250    0.0000 C   0  0  0  0  0  0  0  0  0  0  0  0
   -2.1434   -3.7125    0.0000 C   0  0  0  0  0  0  0  0  0  0  0  0
   -2.1434   -2.8875    0.0000 C   0  0  3  0  0  0  0  0  0  0  0  0
   -2.8579   -2.4750    0.0000 C   0  0  0  0  0  0  0  0  0  0  0  0
   -1.4289   -2.4750    0.0000 C   0  0  0  0  0  0  0  0  0  0  0  0
   -1.4289   -1.6500    0.0000 C   0  0  0  0  0  0  0  0  0  0  0  0
   -0.7145   -1.2375    0.0000 C   0  0  0  0  0  0  0  0  0  0  0  0
    0.0000   -1.6500    0.0000 C   0  0  0  0  0  0  0  0  0  0  0  0
    0.0000   -2.4750    0.0000 C   0  0  0  0  0  0  0  0  0  0  0  0
   -0.7145   -2.8875    0.0000 C   0  0  0  0  0  0  0  0  0  0  0  0
    0.7145   -1.2375    0.0000 N   0  0  0  0  0  0  0  0  0  0  0  0
    0.7145   -0.4125    0.0000 C   0  0  3  0  0  0  0  0  0  0  0  0
    1.4289    0.0000    0.0000 N   0  0  0  0  0  0  0  0  0  0  0  0
    2.1434   -0.4125    0.0000 C   0  0  0  0  0  0  0  0  0  0  0  0
    2.8579    0.0000    0.0000 C   0  0  0  0  0  0  0  0  0  0  0  0
    3.5724   -0.4125    0.0000 C   0  0  0  0  0  0  0  0  0  0  0  0
    3.5724   -1.2375    0.0000 C   0  0  0  0  0  0  0  0  0  0  0  0
    2.8579   -1.6500    0.0000 C   0  0  0  0  0  0  0  0  0  0  0  0
    2.1434   -1.2375    0.0000 C   0  0  0  0  0  0  0  0  0  0  0  0
    1.4289   -1.6500    0.0000 C   0  0  0  0  0  0  0  0  0  0  0  0
    1.4289   -2.4750    0.0000 O   0  0  0  0  0  0  0  0  0  0  0  0
    0.0000    0.0000    0.0000 C   0  0  0  0  0  0  0  0  0  0  0  0
   -0.7145   -0.4125    0.0000 C   0  0  0  0  0  0  0  0  0  0  0  0
   -1.4289   -0.0000    0.0000 C   0  0  0  0  0  0  0  0  0  0  0  0
   -1.4289    0.8250    0.0000 C   0  0  0  0  0  0  0  0  0  0  0  0
   -0.7145    1.2375    0.0000 C   0  0  0  0  0  0  0  0  0  0  0  0
    0.0000    0.8250    0.0000 C   0  0  0  0  0  0  0  0  0  0  0  0
   -2.1434    1.2375    0.0000 C   0  0  0  0  0  0  0  0  0  0  0  0
   -2.8579    0.8250    0.0000 C   0  0  0  0  0  0  0  0  0  0  0  0
   -2.1434    2.0625    0.0000 C   0  0  0  0  0  0  0  0  0  0  0  0
  1  2  1  0  0  0  0
  2  3  1  0  0  0  0
  3  4  1  0  0  0  0
  3  5  1  0  0  0  0
  5  6  2  0  0  0  0
  5 10  1  0  0  0  0
  6  7  1  0  0  0  0
  7  8  2  0  0  0  0
  8  9  1  0  0  0  0
  8 11  1  0  0  0  0
  9 10  2  0  0  0  0
 11 12  1  0  0  0  0
 11 20  1  0  0  0  0
 12 13  1  0  0  0  0
 12 22  1  0  0  0  0
 13 14  1  0  0  0  0
 14 15  2  0  0  0  0
 14 19  1  0  0  0  0
 15 16  1  0  0  0  0
 16 17  2  0  0  0  0
 17 18  1  0  0  0  0
 18 19  2  0  0  0  0
 19 20  1  0  0  0  0
 20 21  2  0  0  0  0
 22 23  2  0  0  0  0
 22 27  1  0  0  0  0
 23 24  1  0  0  0  0
 24 25  2  0  0  0  0
 25 26  1  0  0  0  0
 25 28  1  0  0  0  0
 26 27  2  0  0  0  0
 28 29  1  0  0  0  0
 28 30  1  0  0  0  0
M  END
$$$$

 OpenBabel12191814062D

 29 32  0  0  0  0  0  0  0  0999 V2000
   -2.8579   -4.1250    0.0000 C   0  0  0  0  0  0  0  0  0  0  0  0
   -2.1434   -3.7125    0.0000 C   0  0  0  0  0  0  0  0  0  0  0  0
   -2.1434   -2.8875    0.0000 C   0  0  3  0  0  0  0  0  0  0  0  0
   -2.8579   -2.4750    0.0000 C   0  0  0  0  0  0  0  0  0  0  0  0
   -1.4289   -2.4750    0.0000 C   0  0  0  0  0  0  0  0  0  0  0  0
   -1.4289   -1.6500    0.0000 C   0  0  0  0  0  0  0  0  0  0  0  0
   -0.7145   -1.2375    0.0000 C   0  0  0  0  0  0  0  0  0  0  0  0
    0.0000   -1.6500    0.0000 C   0  0  0  0  0  0  0  0  0  0  0  0
    0.0000   -2.4750    0.0000 C   0  0  0  0  0  0  0  0  0  0  0  0
   -0.7145   -2.8875    0.0000 C   0  0  0  0  0  0  0  0  0  0  0  0
    0.7145   -1.2375    0.0000 N   0  0  0  0  0  0  0  0  0  0  0  0
    0.7145   -0.4125    0.0000 C   0  0  3  0  0  0  0  0  0  0  0  0
    1.4289    0.0000    0.0000 N   0  0  0  0  0  0  0  0  0  0  0  0
    2.1434   -0.4125    0.0000 C   0  0  0  0  0  0  0  0  0  0  0  0
    2.8579    0.0000    0.0000 C   0  0  0  0  0  0  0  0  0  0  0  0
    3.5724   -0.4125    0.0000 C   0  0  0  0  0  0  0  0  0  0  0  0
    3.5724   -1.2375    0.0000 C   0  0  0  0  0  0  0  0  0  0  0  0
    2.8579   -1.6500    0.0000 C   0  0  0  0  0  0  0  0  0  0  0  0
    2.1434   -1.2375    0.0000 C   0  0  0  0  0  0  0  0  0  0  0  0
    1.4289   -1.6500    0.0000 C   0  0  0  0  0  0  0  0  0  0  0  0
    1.4289   -2.4750    0.0000 O   0  0  0  0  0  0  0  0  0  0  0  0
    0.0000    0.0000    0.0000 C   0  0  0  0  0  0  0  0  0  0  0  0
   -0.7145   -0.4125    0.0000 C   0  0  0  0  0  0  0  0  0  0  0  0
   -1.4289   -0.0000    0.0000 C   0  0  0  0  0  0  0  0  0  0  0  0
   -1.4289    0.8250    0.0000 C   0  0  0  0  0  0  0  0  0  0  0  0
   -2.1434    1.2375    0.0000 O   0  0  0  0  0  0  0  0  0  0  0  0
   -2.8579    0.8250    0.0000 C   0  0  0  0  0  0  0  0  0  0  0  0
   -0.7145    1.2375    0.0000 C   0  0  0  0  0  0  0  0  0  0  0  0
    0.0000    0.8250    0.0000 C   0  0  0  0  0  0  0  0  0  0  0  0
  1  2  1  0  0  0  0
  2  3  1  0  0  0  0
  3  4  1  0  0  0  0
  3  5  1  0  0  0  0
  5  6  2  0  0  0  0
  5 10  1  0  0  0  0
  6  7  1  0  0  0  0
  7  8  2  0  0  0  0
  8  9  1  0  0  0  0
  8 11  1  0  0  0  0
  9 10  2  0  0  0  0
 11 12  1  0  0  0  0
 11 20  1  0  0  0  0
 12 13  1  0  0  0  0
 12 22  1  0  0  0  0
 13 14  1  0  0  0  0
 14 15  2  0  0  0  0
 14 19  1  0  0  0  0
 15 16  1  0  0  0  0
 16 17  2  0  0  0  0
 17 18  1  0  0  0  0
 18 19  2  0  0  0  0
 19 20  1  0  0  0  0
 20 21  2  0  0  0  0
 22 23  2  0  0  0  0
 22 29  1  0  0  0  0
 23 24  1  0  0  0  0
 24 25  2  0  0  0  0
 25 26  1  0  0  0  0
 25 28  1  0  0  0  0
 26 27  1  0  0  0  0
 28 29  2  0  0  0  0
M  END
$$$$

 OpenBabel12191814062D

 86 88  0  0  0  0  0  0  0  0999 V2000
   14.3241   -2.5489    0.0000 C   0  0  0  0  0  0  0  0  0  0  0  0
   14.6173   -1.7778    0.0000 C   0  0  0  0  0  0  0  0  0  0  0  0
   14.0962   -1.1383    0.0000 C   0  0  3  0  0  0  0  0  0  0  0  0
   14.3895   -0.3672    0.0000 C   0  0  0  0  0  0  0  0  0  0  0  0
   13.2818   -1.2698    0.0000 C   0  0  3  0  0  0  0  0  0  0  0  0
   12.7606   -0.6303    0.0000 N   0  0  0  0  0  0  0  0  0  0  0  0
   11.9366   -0.5896    0.0000 C   0  0  0  0  0  0  0  0  0  0  0  0
   13.3422   -0.0451    0.0000 C   0  0  0  0  0  0  0  0  0  0  0  0
   14.1659    0.0006    0.0000 O   0  0  0  0  0  0  0  0  0  0  0  0
   13.1262    0.7511    0.0000 C   0  0  3  0  0  0  0  0  0  0  0  0
   13.7078    1.3362    0.0000 C   0  0  3  0  0  0  0  0  0  0  0  0
   13.4918    2.1325    0.0000 C   0  0  0  0  0  0  0  0  0  0  0  0
   14.5053    1.1252    0.0000 C   0  0  0  0  0  0  0  0  0  0  0  0
   14.7213    0.3289    0.0000 C   0  0  0  0  0  0  0  0  0  0  0  0
   12.3287    0.9622    0.0000 N   0  0  0  0  0  0  0  0  0  0  0  0
   11.6381    0.5107    0.0000 C   0  0  0  0  0  0  0  0  0  0  0  0
   12.4552    1.7774    0.0000 C   0  0  0  0  0  0  0  0  0  0  0  0
   13.0948    2.2986    0.0000 O   0  0  0  0  0  0  0  0  0  0  0  0
   11.8125    2.2946    0.0000 C   0  0  3  0  0  0  0  0  0  0  0  0
   11.9391    3.1099    0.0000 C   0  0  0  0  0  0  0  0  0  0  0  0
   12.7083    3.4079    0.0000 C   0  0  0  0  0  0  0  0  0  0  0  0
   13.3511    2.8907    0.0000 C   0  0  0  0  0  0  0  0  0  0  0  0
   14.1204    3.1887    0.0000 C   0  0  0  0  0  0  0  0  0  0  0  0
   14.2469    4.0039    0.0000 O   0  0  0  0  0  0  0  0  0  0  0  0
   14.7631    2.6714    0.0000 O   0  0  0  0  0  0  0  0  0  0  0  0
   15.5324    2.9695    0.0000 C   0  0  0  0  0  0  0  0  0  0  0  0
   16.3017    3.2675    0.0000 C   0  0  0  0  0  0  0  0  0  0  0  0
   15.2344    3.7387    0.0000 C   0  0  0  0  0  0  0  0  0  0  0  0
   15.8304    2.2002    0.0000 C   0  0  0  0  0  0  0  0  0  0  0  0
   11.0432    1.9966    0.0000 N   0  0  0  0  0  0  0  0  0  0  0  0
   10.7499    1.2255    0.0000 C   0  0  0  0  0  0  0  0  0  0  0  0
   10.6664    2.7305    0.0000 C   0  0  0  0  0  0  0  0  0  0  0  0
   11.1136    3.4238    0.0000 O   0  0  0  0  0  0  0  0  0  0  0  0
    9.8424    2.7712    0.0000 C   0  0  3  0  0  0  0  0  0  0  0  0
    9.3952    2.0779    0.0000 N   0  0  0  0  0  0  0  0  0  0  0  0
    8.6590    2.4502    0.0000 C   0  0  0  0  0  0  0  0  0  0  0  0
    8.6133    3.2739    0.0000 O   0  0  0  0  0  0  0  0  0  0  0  0
    7.9685    1.9988    0.0000 C   0  0  3  0  0  0  0  0  0  0  0  0
    7.2322    2.3711    0.0000 C   0  0  0  0  0  0  0  0  0  0  0  0
    6.5417    1.9196    0.0000 C   0  0  0  0  0  0  0  0  0  0  0  0
    7.1865    3.1948    0.0000 C   0  0  0  0  0  0  0  0  0  0  0  0
    8.0142    1.1750    0.0000 N   0  0  0  0  0  0  0  0  0  0  0  0
    8.6569    0.6578    0.0000 C   0  0  0  0  0  0  0  0  0  0  0  0
    7.1997    1.0435    0.0000 C   0  0  0  0  0  0  0  0  0  0  0  0
    6.5064    1.4907    0.0000 O   0  0  0  0  0  0  0  0  0  0  0  0
    6.9064    0.2724    0.0000 C   0  0  3  0  0  0  0  0  0  0  0  0
    6.0920    0.1408    0.0000 C   0  0  0  0  0  0  0  0  0  0  0  0
    5.7987   -0.6303    0.0000 C   0  0  0  0  0  0  0  0  0  0  0  0
    6.3198   -1.2698    0.0000 C   0  0  0  0  0  0  0  0  0  0  0  0
    7.1343   -1.1383    0.0000 C   0  0  0  0  0  0  0  0  0  0  0  0
    7.4276   -0.3672    0.0000 N   0  0  0  0  0  0  0  0  0  0  0  0
    6.8460   -0.9523    0.0000 C   0  0  0  0  0  0  0  0  0  0  0  0
    6.0223   -0.9980    0.0000 O   0  0  0  0  0  0  0  0  0  0  0  0
    7.0620   -1.7486    0.0000 C   0  0  3  0  0  0  0  0  0  0  0  0
    6.4804   -2.3337    0.0000 C   0  0  0  0  0  0  0  0  0  0  0  0
    7.8595   -1.9596    0.0000 O   0  0  0  0  0  0  0  0  0  0  0  0
    7.7329   -2.7749    0.0000 C   0  0  0  0  0  0  0  0  0  0  0  0
    6.9637   -3.0729    0.0000 O   0  0  0  0  0  0  0  0  0  0  0  0
    8.3757   -3.2921    0.0000 C   0  0  3  0  0  0  0  0  0  0  0  0
    8.2491   -4.1073    0.0000 C   0  0  0  0  0  0  0  0  0  0  0  0
    7.4798   -4.4053    0.0000 C   0  0  0  0  0  0  0  0  0  0  0  0
    7.3533   -5.2206    0.0000 C   0  0  0  0  0  0  0  0  0  0  0  0
    6.5840   -5.5186    0.0000 C   0  0  0  0  0  0  0  0  0  0  0  0
    5.9412   -5.0014    0.0000 C   0  0  0  0  0  0  0  0  0  0  0  0
    5.1719   -5.2994    0.0000 O   0  0  0  0  0  0  0  0  0  0  0  0
    5.0454   -6.1146    0.0000 C   0  0  0  0  0  0  0  0  0  0  0  0
    6.0678   -4.1861    0.0000 C   0  0  0  0  0  0  0  0  0  0  0  0
    6.8371   -3.8881    0.0000 C   0  0  0  0  0  0  0  0  0  0  0  0
    9.1450   -2.9941    0.0000 N   0  0  0  0  0  0  0  0  0  0  0  0
    9.5218   -3.7280    0.0000 C   0  0  0  0  0  0  0  0  0  0  0  0
    9.0746   -4.4213    0.0000 O   0  0  0  0  0  0  0  0  0  0  0  0
   10.3458   -3.7687    0.0000 C   0  0  3  0  0  0  0  0  0  0  0  0
   10.7226   -4.5026    0.0000 C   0  0  0  0  0  0  0  0  0  0  0  0
   11.5466   -4.5433    0.0000 C   0  0  0  0  0  0  0  0  0  0  0  0
   10.2754   -5.1959    0.0000 C   0  0  0  0  0  0  0  0  0  0  0  0
   10.7930   -3.0754    0.0000 N   0  0  0  0  0  0  0  0  0  0  0  0
   10.5770   -2.2792    0.0000 C   0  0  0  0  0  0  0  0  0  0  0  0
   11.5292   -3.4477    0.0000 C   0  0  0  0  0  0  0  0  0  0  0  0
   11.8272   -4.2170    0.0000 O   0  0  0  0  0  0  0  0  0  0  0  0
   12.2197   -2.9962    0.0000 C   0  0  0  0  0  0  0  0  0  0  0  0
   12.1740   -2.1725    0.0000 N   0  0  0  0  0  0  0  0  0  0  0  0
   12.9885   -2.0409    0.0000 C   0  0  0  0  0  0  0  0  0  0  0  0
   13.5096   -2.6805    0.0000 O   0  0  0  0  0  0  0  0  0  0  0  0
    9.4656    3.5051    0.0000 C   0  0  0  0  0  0  0  0  0  0  0  0
    8.6945    3.7984    0.0000 C   0  0  0  0  0  0  0  0  0  0  0  0
    9.9128    4.1984    0.0000 C   0  0  0  0  0  0  0  0  0  0  0  0
  1  2  1  0  0  0  0
  2  3  1  0  0  0  0
  3  4  1  0  0  0  0
  3  5  1  0  0  0  0
  5  6  1  0  0  0  0
  5 82  1  0  0  0  0
  6  7  1  0  0  0  0
  6  8  1  0  0  0  0
  8  9  2  0  0  0  0
  8 10  1  0  0  0  0
 10 11  1  0  0  0  0
 10 15  1  0  0  0  0
 11 12  1  0  0  0  0
 11 13  1  0  0  0  0
 13 14  1  0  0  0  0
 15 16  1  0  0  0  0
 15 17  1  0  0  0  0
 17 18  2  0  0  0  0
 17 19  1  0  0  0  0
 19 20  1  0  0  0  0
 19 30  1  0  0  0  0
 20 21  1  0  0  0  0
 21 22  2  0  0  0  0
 22 23  1  0  0  0  0
 23 24  2  0  0  0  0
 23 25  1  0  0  0  0
 25 26  1  0  0  0  0
 26 27  1  0  0  0  0
 26 28  1  0  0  0  0
 26 29  1  0  0  0  0
 30 31  1  0  0  0  0
 30 32  1  0  0  0  0
 32 33  2  0  0  0  0
 32 34  1  0  0  0  0
 34 35  1  0  0  0  0
 34 84  1  0  0  0  0
 35 36  1  0  0  0  0
 36 37  2  0  0  0  0
 36 38  1  0  0  0  0
 38 39  1  0  0  0  0
 38 42  1  0  0  0  0
 39 40  1  0  0  0  0
 39 41  1  0  0  0  0
 42 43  1  0  0  0  0
 42 44  1  0  0  0  0
 44 45  2  0  0  0  0
 44 46  1  0  0  0  0
 46 47  1  0  0  0  0
 46 51  1  0  0  0  0
 47 48  1  0  0  0  0
 48 49  1  0  0  0  0
 49 50  1  0  0  0  0
 50 51  1  0  0  0  0
 51 52  1  0  0  0  0
 52 53  2  0  0  0  0
 52 54  1  0  0  0  0
 54 55  1  0  0  0  0
 54 56  1  0  0  0  0
 56 57  1  0  0  0  0
 57 58  2  0  0  0  0
 57 59  1  0  0  0  0
 59 60  1  0  0  0  0
 59 69  1  0  0  0  0
 60 61  1  0  0  0  0
 61 62  2  0  0  0  0
 61 68  1  0  0  0  0
 62 63  1  0  0  0  0
 63 64  2  0  0  0  0
 64 65  1  0  0  0  0
 64 67  1  0  0  0  0
 65 66  1  0  0  0  0
 67 68  2  0  0  0  0
 69 70  1  0  0  0  0
 70 71  2  0  0  0  0
 70 72  1  0  0  0  0
 72 73  1  0  0  0  0
 72 76  1  0  0  0  0
 73 74  1  0  0  0  0
 73 75  1  0  0  0  0
 76 77  1  0  0  0  0
 76 78  1  0  0  0  0
 78 79  2  0  0  0  0
 78 80  1  0  0  0  0
 80 81  1  0  0  0  0
 81 82  1  0  0  0  0
 82 83  2  0  0  0  0
 84 85  1  0  0  0  0
 84 86  1  0  0  0  0
M  END
$$$$

 OpenBabel12191814062D

 90 93  0  0  0  0  0  0  0  0999 V2000
   14.3241   -2.5489    0.0000 C   0  0  0  0  0  0  0  0  0  0  0  0
   14.6173   -1.7778    0.0000 C   0  0  0  0  0  0  0  0  0  0  0  0
   14.0962   -1.1383    0.0000 C   0  0  3  0  0  0  0  0  0  0  0  0
   14.3895   -0.3672    0.0000 C   0  0  0  0  0  0  0  0  0  0  0  0
   13.2818   -1.2698    0.0000 C   0  0  3  0  0  0  0  0  0  0  0  0
   12.7606   -0.6303    0.0000 N   0  0  0  0  0  0  0  0  0  0  0  0
   11.9366   -0.5896    0.0000 C   0  0  0  0  0  0  0  0  0  0  0  0
   13.3422   -0.0451    0.0000 C   0  0  0  0  0  0  0  0  0  0  0  0
   14.1659    0.0006    0.0000 O   0  0  0  0  0  0  0  0  0  0  0  0
   13.1262    0.7511    0.0000 C   0  0  3  0  0  0  0  0  0  0  0  0
   13.7078    1.3362    0.0000 C   0  0  3  0  0  0  0  0  0  0  0  0
   13.4918    2.1325    0.0000 C   0  0  0  0  0  0  0  0  0  0  0  0
   14.5053    1.1252    0.0000 C   0  0  0  0  0  0  0  0  0  0  0  0
   14.7213    0.3289    0.0000 C   0  0  0  0  0  0  0  0  0  0  0  0
   12.3287    0.9622    0.0000 N   0  0  0  0  0  0  0  0  0  0  0  0
   11.6381    0.5107    0.0000 C   0  0  0  0  0  0  0  0  0  0  0  0
   12.4552    1.7774    0.0000 C   0  0  0  0  0  0  0  0  0  0  0  0
   13.0948    2.2986    0.0000 O   0  0  0  0  0  0  0  0  0  0  0  0
   11.8125    2.2946    0.0000 C   0  0  3  0  0  0  0  0  0  0  0  0
   11.9391    3.1099    0.0000 C   0  0  0  0  0  0  0  0  0  0  0  0
   12.7083    3.4079    0.0000 C   0  0  0  0  0  0  0  0  0  0  0  0
   13.3511    2.8907    0.0000 O   0  0  0  0  0  0  0  0  0  0  0  0
   12.8349    4.2231    0.0000 N   0  0  0  0  0  0  0  0  0  0  0  0
   13.5688    4.5999    0.0000 C   0  0  0  0  0  0  0  0  0  0  0  0
   13.4373    5.4143    0.0000 C   0  0  0  0  0  0  0  0  0  0  0  0
   12.6221    5.5409    0.0000 C   0  0  0  0  0  0  0  0  0  0  0  0
   12.2498    4.8047    0.0000 C   0  0  3  0  0  0  0  0  0  0  0  0
   11.4353    4.6731    0.0000 C   0  0  0  0  0  0  0  0  0  0  0  0
   10.9142    5.3127    0.0000 O   0  0  0  0  0  0  0  0  0  0  0  0
   11.2075    6.0838    0.0000 C   0  0  0  0  0  0  0  0  0  0  0  0
   11.5008    6.8549    0.0000 C   0  0  0  0  0  0  0  0  0  0  0  0
   10.4364    6.3771    0.0000 C   0  0  0  0  0  0  0  0  0  0  0  0
   11.9786    5.7905    0.0000 C   0  0  0  0  0  0  0  0  0  0  0  0
   11.0432    1.9966    0.0000 N   0  0  0  0  0  0  0  0  0  0  0  0
   10.7499    1.2255    0.0000 C   0  0  0  0  0  0  0  0  0  0  0  0
   10.6664    2.7305    0.0000 C   0  0  0  0  0  0  0  0  0  0  0  0
   11.1136    3.4238    0.0000 O   0  0  0  0  0  0  0  0  0  0  0  0
    9.8424    2.7712    0.0000 C   0  0  3  0  0  0  0  0  0  0  0  0
    9.3952    2.0779    0.0000 N   0  0  0  0  0  0  0  0  0  0  0  0
    8.6590    2.4502    0.0000 C   0  0  0  0  0  0  0  0  0  0  0  0
    8.6133    3.2739    0.0000 O   0  0  0  0  0  0  0  0  0  0  0  0
    7.9685    1.9988    0.0000 C   0  0  3  0  0  0  0  0  0  0  0  0
    7.2322    2.3711    0.0000 C   0  0  0  0  0  0  0  0  0  0  0  0
    6.5417    1.9196    0.0000 C   0  0  0  0  0  0  0  0  0  0  0  0
    7.1865    3.1948    0.0000 C   0  0  0  0  0  0  0  0  0  0  0  0
    8.0142    1.1750    0.0000 N   0  0  0  0  0  0  0  0  0  0  0  0
    8.6569    0.6578    0.0000 C   0  0  0  0  0  0  0  0  0  0  0  0
    7.1997    1.0435    0.0000 C   0  0  0  0  0  0  0  0  0  0  0  0
    6.5064    1.4907    0.0000 O   0  0  0  0  0  0  0  0  0  0  0  0
    6.9064    0.2724    0.0000 C   0  0  3  0  0  0  0  0  0  0  0  0
    6.0920    0.1408    0.0000 C   0  0  0  0  0  0  0  0  0  0  0  0
    5.7987   -0.6303    0.0000 C   0  0  0  0  0  0  0  0  0  0  0  0
    6.3198   -1.2698    0.0000 C   0  0  0  0  0  0  0  0  0  0  0  0
    7.1343   -1.1383    0.0000 C   0  0  0  0  0  0  0  0  0  0  0  0
    7.4276   -0.3672    0.0000 N   0  0  0  0  0  0  0  0  0  0  0  0
    6.8460   -0.9523    0.0000 C   0  0  0  0  0  0  0  0  0  0  0  0
    6.0223   -0.9980    0.0000 O   0  0  0  0  0  0  0  0  0  0  0  0
    7.0620   -1.7486    0.0000 C   0  0  3  0  0  0  0  0  0  0  0  0
    6.4804   -2.3337    0.0000 C   0  0  0  0  0  0  0  0  0  0  0  0
    7.8595   -1.9596    0.0000 O   0  0  0  0  0  0  0  0  0  0  0  0
    7.7329   -2.7749    0.0000 C   0  0  0  0  0  0  0  0  0  0  0  0
    6.9637   -3.0729    0.0000 O   0  0  0  0  0  0  0  0  0  0  0  0
    8.3757   -3.2921    0.0000 C   0  0  3  0  0  0  0  0  0  0  0  0
    8.2491   -4.1073    0.0000 C   0  0  0  0  0  0  0  0  0  0  0  0
    7.4798   -4.4053    0.0000 C   0  0  0  0  0  0  0  0  0  0  0  0
    7.3533   -5.2206    0.0000 C   0  0  0  0  0  0  0  0  0  0  0  0
    6.5840   -5.5186    0.0000 C   0  0  0  0  0  0  0  0  0  0  0  0
    5.9412   -5.0014    0.0000 C   0  0  0  0  0  0  0  0  0  0  0  0
    5.1719   -5.2994    0.0000 O   0  0  0  0  0  0  0  0  0  0  0  0
    5.0454   -6.1146    0.0000 C   0  0  0  0  0  0  0  0  0  0  0  0
    6.0678   -4.1861    0.0000 C   0  0  0  0  0  0  0  0  0  0  0  0
    6.8371   -3.8881    0.0000 C   0  0  0  0  0  0  0  0  0  0  0  0
    9.1450   -2.9941    0.0000 N   0  0  0  0  0  0  0  0  0  0  0  0
    9.5218   -3.7280    0.0000 C   0  0  0  0  0  0  0  0  0  0  0  0
    9.0746   -4.4213    0.0000 O   0  0  0  0  0  0  0  0  0  0  0  0
   10.3458   -3.7687    0.0000 C   0  0  3  0  0  0  0  0  0  0  0  0
   10.7226   -4.5026    0.0000 C   0  0  0  0  0  0  0  0  0  0  0  0
   11.5466   -4.5433    0.0000 C   0  0  0  0  0  0  0  0  0  0  0  0
   10.2754   -5.1959    0.0000 C   0  0  0  0  0  0  0  0  0  0  0  0
   10.7930   -3.0754    0.0000 N   0  0  0  0  0  0  0  0  0  0  0  0
   10.5770   -2.2792    0.0000 C   0  0  0  0  0  0  0  0  0  0  0  0
   11.5292   -3.4477    0.0000 C   0  0  0  0  0  0  0  0  0  0  0  0
   11.8272   -4.2170    0.0000 O   0  0  0  0  0  0  0  0  0  0  0  0
   12.2197   -2.9962    0.0000 C   0  0  0  0  0  0  0  0  0  0  0  0
   12.1740   -2.1725    0.0000 N   0  0  0  0  0  0  0  0  0  0  0  0
   12.9885   -2.0409    0.0000 C   0  0  0  0  0  0  0  0  0  0  0  0
   13.5096   -2.6805    0.0000 O   0  0  0  0  0  0  0  0  0  0  0  0
    9.4656    3.5051    0.0000 C   0  0  0  0  0  0  0  0  0  0  0  0
    8.6945    3.7984    0.0000 C   0  0  0  0  0  0  0  0  0  0  0  0
    9.9128    4.1984    0.0000 C   0  0  0  0  0  0  0  0  0  0  0  0
  1  2  1  0  0  0  0
  2  3  1  0  0  0  0
  3  4  1  0  0  0  0
  3  5  1  0  0  0  0
  5  6  1  0  0  0  0
  5 86  1  0  0  0  0
  6  7  1  0  0  0  0
  6  8  1  0  0  0  0
  8  9  2  0  0  0  0
  8 10  1  0  0  0  0
 10 11  1  0  0  0  0
 10 15  1  0  0  0  0
 11 12  1  0  0  0  0
 11 13  1  0  0  0  0
 13 14  1  0  0  0  0
 15 16  1  0  0  0  0
 15 17  1  0  0  0  0
 17 18  2  0  0  0  0
 17 19  1  0  0  0  0
 19 20  1  0  0  0  0
 19 34  1  0  0  0  0
 20 21  1  0  0  0  0
 21 22  2  0  0  0  0
 21 23  1  0  0  0  0
 23 24  1  0  0  0  0
 23 27  1  0  0  0  0
 24 25  1  0  0  0  0
 25 26  1  0  0  0  0
 26 27  1  0  0  0  0
 27 28  1  0  0  0  0
 28 29  1  0  0  0  0
 29 30  1  0  0  0  0
 30 31  1  0  0  0  0
 30 32  1  0  0  0  0
 30 33  1  0  0  0  0
 34 35  1  0  0  0  0
 34 36  1  0  0  0  0
 36 37  2  0  0  0  0
 36 38  1  0  0  0  0
 38 39  1  0  0  0  0
 38 88  1  0  0  0  0
 39 40  1  0  0  0  0
 40 41  2  0  0  0  0
 40 42  1  0  0  0  0
 42 43  1  0  0  0  0
 42 46  1  0  0  0  0
 43 44  1  0  0  0  0
 43 45  1  0  0  0  0
 46 47  1  0  0  0  0
 46 48  1  0  0  0  0
 48 49  2  0  0  0  0
 48 50  1  0  0  0  0
 50 51  1  0  0  0  0
 50 55  1  0  0  0  0
 51 52  1  0  0  0  0
 52 53  1  0  0  0  0
 53 54  1  0  0  0  0
 54 55  1  0  0  0  0
 55 56  1  0  0  0  0
 56 57  2  0  0  0  0
 56 58  1  0  0  0  0
 58 59  1  0  0  0  0
 58 60  1  0  0  0  0
 60 61  1  0  0  0  0
 61 62  2  0  0  0  0
 61 63  1  0  0  0  0
 63 64  1  0  0  0  0
 63 73  1  0  0  0  0
 64 65  1  0  0  0  0
 65 66  2  0  0  0  0
 65 72  1  0  0  0  0
 66 67  1  0  0  0  0
 67 68  2  0  0  0  0
 68 69  1  0  0  0  0
 68 71  1  0  0  0  0
 69 70  1  0  0  0  0
 71 72  2  0  0  0  0
 73 74  1  0  0  0  0
 74 75  2  0  0  0  0
 74 76  1  0  0  0  0
 76 77  1  0  0  0  0
 76 80  1  0  0  0  0
 77 78  1  0  0  0  0
 77 79  1  0  0  0  0
 80 81  1  0  0  0  0
 80 82  1  0  0  0  0
 82 83  2  0  0  0  0
 82 84  1  0  0  0  0
 84 85  1  0  0  0  0
 85 86  1  0  0  0  0
 86 87  2  0  0  0  0
 88 89  1  0  0  0  0
 88 90  1  0  0  0  0
M  END
$$$$

 OpenBabel12191814062D

 85 88  0  0  0  0  0  0  0  0999 V2000
   14.3241   -2.5489    0.0000 C   0  0  0  0  0  0  0  0  0  0  0  0
   14.6173   -1.7778    0.0000 C   0  0  0  0  0  0  0  0  0  0  0  0
   14.0962   -1.1383    0.0000 C   0  0  3  0  0  0  0  0  0  0  0  0
   14.3895   -0.3672    0.0000 C   0  0  0  0  0  0  0  0  0  0  0  0
   13.2818   -1.2698    0.0000 C   0  0  3  0  0  0  0  0  0  0  0  0
   12.7606   -0.6303    0.0000 N   0  0  0  0  0  0  0  0  0  0  0  0
   11.9366   -0.5896    0.0000 C   0  0  0  0  0  0  0  0  0  0  0  0
   13.3422   -0.0451    0.0000 C   0  0  0  0  0  0  0  0  0  0  0  0
   14.1659    0.0006    0.0000 O   0  0  0  0  0  0  0  0  0  0  0  0
   13.1262    0.7511    0.0000 C   0  0  3  0  0  0  0  0  0  0  0  0
   13.7078    1.3362    0.0000 C   0  0  3  0  0  0  0  0  0  0  0  0
   13.4918    2.1325    0.0000 C   0  0  0  0  0  0  0  0  0  0  0  0
   14.5053    1.1252    0.0000 C   0  0  0  0  0  0  0  0  0  0  0  0
   14.7213    0.3289    0.0000 C   0  0  0  0  0  0  0  0  0  0  0  0
   12.3287    0.9622    0.0000 N   0  0  0  0  0  0  0  0  0  0  0  0
   11.6381    0.5107    0.0000 C   0  0  0  0  0  0  0  0  0  0  0  0
   12.4552    1.7774    0.0000 C   0  0  0  0  0  0  0  0  0  0  0  0
   13.0948    2.2986    0.0000 O   0  0  0  0  0  0  0  0  0  0  0  0
   11.8125    2.2946    0.0000 C   0  0  3  0  0  0  0  0  0  0  0  0
   11.9391    3.1099    0.0000 C   0  0  0  0  0  0  0  0  0  0  0  0
   12.7083    3.4079    0.0000 C   0  0  0  0  0  0  0  0  0  0  0  0
   13.3511    2.8907    0.0000 O   0  0  0  0  0  0  0  0  0  0  0  0
   12.8349    4.2231    0.0000 N   0  0  0  0  0  0  0  0  0  0  0  0
   12.1922    4.7403    0.0000 C   0  0  0  0  0  0  0  0  0  0  0  0
   12.3187    5.5556    0.0000 C   0  0  0  0  0  0  0  0  0  0  0  0
   13.0880    5.8536    0.0000 C   0  0  0  0  0  0  0  0  0  0  0  0
   13.7308    5.3364    0.0000 C   0  0  0  0  0  0  0  0  0  0  0  0
   13.6042    4.5211    0.0000 C   0  0  0  0  0  0  0  0  0  0  0  0
   11.0432    1.9966    0.0000 N   0  0  0  0  0  0  0  0  0  0  0  0
   10.7499    1.2255    0.0000 C   0  0  0  0  0  0  0  0  0  0  0  0
   10.6664    2.7305    0.0000 C   0  0  0  0  0  0  0  0  0  0  0  0
   11.1136    3.4238    0.0000 O   0  0  0  0  0  0  0  0  0  0  0  0
    9.8424    2.7712    0.0000 C   0  0  3  0  0  0  0  0  0  0  0  0
    9.3952    2.0779    0.0000 N   0  0  0  0  0  0  0  0  0  0  0  0
    8.6590    2.4502    0.0000 C   0  0  0  0  0  0  0  0  0  0  0  0
    8.6133    3.2739    0.0000 O   0  0  0  0  0  0  0  0  0  0  0  0
    7.9685    1.9988    0.0000 C   0  0  3  0  0  0  0  0  0  0  0  0
    7.2322    2.3711    0.0000 C   0  0  0  0  0  0  0  0  0  0  0  0
    6.5417    1.9196    0.0000 C   0  0  0  0  0  0  0  0  0  0  0  0
    7.1865    3.1948    0.0000 C   0  0  0  0  0  0  0  0  0  0  0  0
    8.0142    1.1750    0.0000 N   0  0  0  0  0  0  0  0  0  0  0  0
    8.6569    0.6578    0.0000 C   0  0  0  0  0  0  0  0  0  0  0  0
    7.1997    1.0435    0.0000 C   0  0  0  0  0  0  0  0  0  0  0  0
    6.5064    1.4907    0.0000 O   0  0  0  0  0  0  0  0  0  0  0  0
    6.9064    0.2724    0.0000 C   0  0  3  0  0  0  0  0  0  0  0  0
    6.0920    0.1408    0.0000 C   0  0  0  0  0  0  0  0  0  0  0  0
    5.7987   -0.6303    0.0000 C   0  0  0  0  0  0  0  0  0  0  0  0
    6.3198   -1.2698    0.0000 C   0  0  0  0  0  0  0  0  0  0  0  0
    7.1343   -1.1383    0.0000 C   0  0  0  0  0  0  0  0  0  0  0  0
    7.4276   -0.3672    0.0000 N   0  0  0  0  0  0  0  0  0  0  0  0
    6.8460   -0.9523    0.0000 C   0  0  0  0  0  0  0  0  0  0  0  0
    6.0223   -0.9980    0.0000 O   0  0  0  0  0  0  0  0  0  0  0  0
    7.0620   -1.7486    0.0000 C   0  0  3  0  0  0  0  0  0  0  0  0
    6.4804   -2.3337    0.0000 C   0  0  0  0  0  0  0  0  0  0  0  0
    7.8595   -1.9596    0.0000 O   0  0  0  0  0  0  0  0  0  0  0  0
    7.7329   -2.7749    0.0000 C   0  0  0  0  0  0  0  0  0  0  0  0
    6.9637   -3.0729    0.0000 O   0  0  0  0  0  0  0  0  0  0  0  0
    8.3757   -3.2921    0.0000 C   0  0  3  0  0  0  0  0  0  0  0  0
    8.2491   -4.1073    0.0000 C   0  0  0  0  0  0  0  0  0  0  0  0
    7.4798   -4.4053    0.0000 C   0  0  0  0  0  0  0  0  0  0  0  0
    7.3533   -5.2206    0.0000 C   0  0  0  0  0  0  0  0  0  0  0  0
    6.5840   -5.5186    0.0000 C   0  0  0  0  0  0  0  0  0  0  0  0
    5.9412   -5.0014    0.0000 C   0  0  0  0  0  0  0  0  0  0  0  0
    5.1719   -5.2994    0.0000 O   0  0  0  0  0  0  0  0  0  0  0  0
    5.0454   -6.1146    0.0000 C   0  0  0  0  0  0  0  0  0  0  0  0
    6.0678   -4.1861    0.0000 C   0  0  0  0  0  0  0  0  0  0  0  0
    6.8371   -3.8881    0.0000 C   0  0  0  0  0  0  0  0  0  0  0  0
    9.1450   -2.9941    0.0000 N   0  0  0  0  0  0  0  0  0  0  0  0
    9.5218   -3.7280    0.0000 C   0  0  0  0  0  0  0  0  0  0  0  0
    9.0746   -4.4213    0.0000 O   0  0  0  0  0  0  0  0  0  0  0  0
   10.3458   -3.7687    0.0000 C   0  0  3  0  0  0  0  0  0  0  0  0
   10.7226   -4.5026    0.0000 C   0  0  0  0  0  0  0  0  0  0  0  0
   11.5466   -4.5433    0.0000 C   0  0  0  0  0  0  0  0  0  0  0  0
   10.2754   -5.1959    0.0000 C   0  0  0  0  0  0  0  0  0  0  0  0
   10.7930   -3.0754    0.0000 N   0  0  0  0  0  0  0  0  0  0  0  0
   10.5770   -2.2792    0.0000 C   0  0  0  0  0  0  0  0  0  0  0  0
   11.5292   -3.4477    0.0000 C   0  0  0  0  0  0  0  0  0  0  0  0
   11.8272   -4.2170    0.0000 O   0  0  0  0  0  0  0  0  0  0  0  0
   12.2197   -2.9962    0.0000 C   0  0  0  0  0  0  0  0  0  0  0  0
   12.1740   -2.1725    0.0000 N   0  0  0  0  0  0  0  0  0  0  0  0
   12.9885   -2.0409    0.0000 C   0  0  0  0  0  0  0  0  0  0  0  0
   13.5096   -2.6805    0.0000 O   0  0  0  0  0  0  0  0  0  0  0  0
    9.4656    3.5051    0.0000 C   0  0  0  0  0  0  0  0  0  0  0  0
    8.6945    3.7984    0.0000 C   0  0  0  0  0  0  0  0  0  0  0  0
    9.9128    4.1984    0.0000 C   0  0  0  0  0  0  0  0  0  0  0  0
  1  2  1  0  0  0  0
  2  3  1  0  0  0  0
  3  4  1  0  0  0  0
  3  5  1  0  0  0  0
  5  6  1  0  0  0  0
  5 81  1  0  0  0  0
  6  7  1  0  0  0  0
  6  8  1  0  0  0  0
  8  9  2  0  0  0  0
  8 10  1  0  0  0  0
 10 11  1  0  0  0  0
 10 15  1  0  0  0  0
 11 12  1  0  0  0  0
 11 13  1  0  0  0  0
 13 14  1  0  0  0  0
 15 16  1  0  0  0  0
 15 17  1  0  0  0  0
 17 18  2  0  0  0  0
 17 19  1  0  0  0  0
 19 20  1  0  0  0  0
 19 29  1  0  0  0  0
 20 21  1  0  0  0  0
 21 22  2  0  0  0  0
 21 23  1  0  0  0  0
 23 24  1  0  0  0  0
 23 28  1  0  0  0  0
 24 25  1  0  0  0  0
 25 26  1  0  0  0  0
 26 27  1  0  0  0  0
 27 28  1  0  0  0  0
 29 30  1  0  0  0  0
 29 31  1  0  0  0  0
 31 32  2  0  0  0  0
 31 33  1  0  0  0  0
 33 34  1  0  0  0  0
 33 83  1  0  0  0  0
 34 35  1  0  0  0  0
 35 36  2  0  0  0  0
 35 37  1  0  0  0  0
 37 38  1  0  0  0  0
 37 41  1  0  0  0  0
 38 39  1  0  0  0  0
 38 40  1  0  0  0  0
 41 42  1  0  0  0  0
 41 43  1  0  0  0  0
 43 44  2  0  0  0  0
 43 45  1  0  0  0  0
 45 46  1  0  0  0  0
 45 50  1  0  0  0  0
 46 47  1  0  0  0  0
 47 48  1  0  0  0  0
 48 49  1  0  0  0  0
 49 50  1  0  0  0  0
 50 51  1  0  0  0  0
 51 52  2  0  0  0  0
 51 53  1  0  0  0  0
 53 54  1  0  0  0  0
 53 55  1  0  0  0  0
 55 56  1  0  0  0  0
 56 57  2  0  0  0  0
 56 58  1  0  0  0  0
 58 59  1  0  0  0  0
 58 68  1  0  0  0  0
 59 60  1  0  0  0  0
 60 61  2  0  0  0  0
 60 67  1  0  0  0  0
 61 62  1  0  0  0  0
 62 63  2  0  0  0  0
 63 64  1  0  0  0  0
 63 66  1  0  0  0  0
 64 65  1  0  0  0  0
 66 67  2  0  0  0  0
 68 69  1  0  0  0  0
 69 70  2  0  0  0  0
 69 71  1  0  0  0  0
 71 72  1  0  0  0  0
 71 75  1  0  0  0  0
 72 73  1  0  0  0  0
 72 74  1  0  0  0  0
 75 76  1  0  0  0  0
 75 77  1  0  0  0  0
 77 78  2  0  0  0  0
 77 79  1  0  0  0  0
 79 80  1  0  0  0  0
 80 81  1  0  0  0  0
 81 82  2  0  0  0  0
 83 84  1  0  0  0  0
 83 85  1  0  0  0  0
M  END
$$$$

 OpenBabel12191814062D

 84 86  0  0  0  0  0  0  0  0999 V2000
   14.3241   -2.5489    0.0000 C   0  0  0  0  0  0  0  0  0  0  0  0
   14.6173   -1.7778    0.0000 C   0  0  0  0  0  0  0  0  0  0  0  0
   14.0962   -1.1383    0.0000 C   0  0  3  0  0  0  0  0  0  0  0  0
   14.3895   -0.3672    0.0000 C   0  0  0  0  0  0  0  0  0  0  0  0
   13.2818   -1.2698    0.0000 C   0  0  3  0  0  0  0  0  0  0  0  0
   12.7606   -0.6303    0.0000 N   0  0  0  0  0  0  0  0  0  0  0  0
   11.9366   -0.5896    0.0000 C   0  0  0  0  0  0  0  0  0  0  0  0
   13.3422   -0.0451    0.0000 C   0  0  0  0  0  0  0  0  0  0  0  0
   14.1659    0.0006    0.0000 O   0  0  0  0  0  0  0  0  0  0  0  0
   13.1262    0.7511    0.0000 C   0  0  3  0  0  0  0  0  0  0  0  0
   13.7078    1.3362    0.0000 C   0  0  3  0  0  0  0  0  0  0  0  0
   13.4918    2.1325    0.0000 C   0  0  0  0  0  0  0  0  0  0  0  0
   14.5053    1.1252    0.0000 C   0  0  0  0  0  0  0  0  0  0  0  0
   14.7213    0.3289    0.0000 C   0  0  0  0  0  0  0  0  0  0  0  0
   12.3287    0.9622    0.0000 N   0  0  0  0  0  0  0  0  0  0  0  0
   11.6381    0.5107    0.0000 C   0  0  0  0  0  0  0  0  0  0  0  0
   12.4552    1.7774    0.0000 C   0  0  0  0  0  0  0  0  0  0  0  0
   13.0948    2.2986    0.0000 O   0  0  0  0  0  0  0  0  0  0  0  0
   11.8125    2.2946    0.0000 C   0  0  3  0  0  0  0  0  0  0  0  0
   11.9391    3.1099    0.0000 C   0  0  0  0  0  0  0  0  0  0  0  0
   12.7083    3.4079    0.0000 C   0  0  0  0  0  0  0  0  0  0  0  0
   12.8349    4.2231    0.0000 O   0  0  0  0  0  0  0  0  0  0  0  0
   13.3511    2.8907    0.0000 N   0  0  0  0  0  0  0  0  0  0  0  0
   14.1204    3.1887    0.0000 C   0  0  0  0  0  0  0  0  0  0  0  0
   14.8897    3.4867    0.0000 C   0  0  0  0  0  0  0  0  0  0  0  0
   13.8224    3.9580    0.0000 C   0  0  0  0  0  0  0  0  0  0  0  0
   14.4184    2.4194    0.0000 C   0  0  0  0  0  0  0  0  0  0  0  0
   11.0432    1.9966    0.0000 N   0  0  0  0  0  0  0  0  0  0  0  0
   10.7499    1.2255    0.0000 C   0  0  0  0  0  0  0  0  0  0  0  0
   10.6664    2.7305    0.0000 C   0  0  0  0  0  0  0  0  0  0  0  0
   11.1136    3.4238    0.0000 O   0  0  0  0  0  0  0  0  0  0  0  0
    9.8424    2.7712    0.0000 C   0  0  3  0  0  0  0  0  0  0  0  0
    9.3952    2.0779    0.0000 N   0  0  0  0  0  0  0  0  0  0  0  0
    8.6590    2.4502    0.0000 C   0  0  0  0  0  0  0  0  0  0  0  0
    8.6133    3.2739    0.0000 O   0  0  0  0  0  0  0  0  0  0  0  0
    7.9685    1.9988    0.0000 C   0  0  3  0  0  0  0  0  0  0  0  0
    7.2322    2.3711    0.0000 C   0  0  0  0  0  0  0  0  0  0  0  0
    6.5417    1.9196    0.0000 C   0  0  0  0  0  0  0  0  0  0  0  0
    7.1865    3.1948    0.0000 C   0  0  0  0  0  0  0  0  0  0  0  0
    8.0142    1.1750    0.0000 N   0  0  0  0  0  0  0  0  0  0  0  0
    8.6569    0.6578    0.0000 C   0  0  0  0  0  0  0  0  0  0  0  0
    7.1997    1.0435    0.0000 C   0  0  0  0  0  0  0  0  0  0  0  0
    6.5064    1.4907    0.0000 O   0  0  0  0  0  0  0  0  0  0  0  0
    6.9064    0.2724    0.0000 C   0  0  3  0  0  0  0  0  0  0  0  0
    6.0920    0.1408    0.0000 C   0  0  0  0  0  0  0  0  0  0  0  0
    5.7987   -0.6303    0.0000 C   0  0  0  0  0  0  0  0  0  0  0  0
    6.3198   -1.2698    0.0000 C   0  0  0  0  0  0  0  0  0  0  0  0
    7.1343   -1.1383    0.0000 C   0  0  0  0  0  0  0  0  0  0  0  0
    7.4276   -0.3672    0.0000 N   0  0  0  0  0  0  0  0  0  0  0  0
    6.8460   -0.9523    0.0000 C   0  0  0  0  0  0  0  0  0  0  0  0
    6.0223   -0.9980    0.0000 O   0  0  0  0  0  0  0  0  0  0  0  0
    7.0620   -1.7486    0.0000 C   0  0  3  0  0  0  0  0  0  0  0  0
    6.4804   -2.3337    0.0000 C   0  0  0  0  0  0  0  0  0  0  0  0
    7.8595   -1.9596    0.0000 O   0  0  0  0  0  0  0  0  0  0  0  0
    7.7329   -2.7749    0.0000 C   0  0  0  0  0  0  0  0  0  0  0  0
    6.9637   -3.0729    0.0000 O   0  0  0  0  0  0  0  0  0  0  0  0
    8.3757   -3.2921    0.0000 C   0  0  3  0  0  0  0  0  0  0  0  0
    8.2491   -4.1073    0.0000 C   0  0  0  0  0  0  0  0  0  0  0  0
    7.4798   -4.4053    0.0000 C   0  0  0  0  0  0  0  0  0  0  0  0
    7.3533   -5.2206    0.0000 C   0  0  0  0  0  0  0  0  0  0  0  0
    6.5840   -5.5186    0.0000 C   0  0  0  0  0  0  0  0  0  0  0  0
    5.9412   -5.0014    0.0000 C   0  0  0  0  0  0  0  0  0  0  0  0
    5.1719   -5.2994    0.0000 O   0  0  0  0  0  0  0  0  0  0  0  0
    5.0454   -6.1146    0.0000 C   0  0  0  0  0  0  0  0  0  0  0  0
    6.0678   -4.1861    0.0000 C   0  0  0  0  0  0  0  0  0  0  0  0
    6.8371   -3.8881    0.0000 C   0  0  0  0  0  0  0  0  0  0  0  0
    9.1450   -2.9941    0.0000 N   0  0  0  0  0  0  0  0  0  0  0  0
    9.5218   -3.7280    0.0000 C   0  0  0  0  0  0  0  0  0  0  0  0
    9.0746   -4.4213    0.0000 O   0  0  0  0  0  0  0  0  0  0  0  0
   10.3458   -3.7687    0.0000 C   0  0  3  0  0  0  0  0  0  0  0  0
   10.7226   -4.5026    0.0000 C   0  0  0  0  0  0  0  0  0  0  0  0
   11.5466   -4.5433    0.0000 C   0  0  0  0  0  0  0  0  0  0  0  0
   10.2754   -5.1959    0.0000 C   0  0  0  0  0  0  0  0  0  0  0  0
   10.7930   -3.0754    0.0000 N   0  0  0  0  0  0  0  0  0  0  0  0
   10.5770   -2.2792    0.0000 C   0  0  0  0  0  0  0  0  0  0  0  0
   11.5292   -3.4477    0.0000 C   0  0  0  0  0  0  0  0  0  0  0  0
   11.8272   -4.2170    0.0000 O   0  0  0  0  0  0  0  0  0  0  0  0
   12.2197   -2.9962    0.0000 C   0  0  0  0  0  0  0  0  0  0  0  0
   12.1740   -2.1725    0.0000 N   0  0  0  0  0  0  0  0  0  0  0  0
   12.9885   -2.0409    0.0000 C   0  0  0  0  0  0  0  0  0  0  0  0
   13.5096   -2.6805    0.0000 O   0  0  0  0  0  0  0  0  0  0  0  0
    9.4656    3.5051    0.0000 C   0  0  0  0  0  0  0  0  0  0  0  0
    8.6945    3.7984    0.0000 C   0  0  0  0  0  0  0  0  0  0  0  0
    9.9128    4.1984    0.0000 C   0  0  0  0  0  0  0  0  0  0  0  0
  1  2  1  0  0  0  0
  2  3  1  0  0  0  0
  3  4  1  0  0  0  0
  3  5  1  0  0  0  0
  5  6  1  0  0  0  0
  5 80  1  0  0  0  0
  6  7  1  0  0  0  0
  6  8  1  0  0  0  0
  8  9  2  0  0  0  0
  8 10  1  0  0  0  0
 10 11  1  0  0  0  0
 10 15  1  0  0  0  0
 11 12  1  0  0  0  0
 11 13  1  0  0  0  0
 13 14  1  0  0  0  0
 15 16  1  0  0  0  0
 15 17  1  0  0  0  0
 17 18  2  0  0  0  0
 17 19  1  0  0  0  0
 19 20  1  0  0  0  0
 19 28  1  0  0  0  0
 20 21  1  0  0  0  0
 21 22  2  0  0  0  0
 21 23  1  0  0  0  0
 23 24  1  0  0  0  0
 24 25  1  0  0  0  0
 24 26  1  0  0  0  0
 24 27  1  0  0  0  0
 28 29  1  0  0  0  0
 28 30  1  0  0  0  0
 30 31  2  0  0  0  0
 30 32  1  0  0  0  0
 32 33  1  0  0  0  0
 32 82  1  0  0  0  0
 33 34  1  0  0  0  0
 34 35  2  0  0  0  0
 34 36  1  0  0  0  0
 36 37  1  0  0  0  0
 36 40  1  0  0  0  0
 37 38  1  0  0  0  0
 37 39  1  0  0  0  0
 40 41  1  0  0  0  0
 40 42  1  0  0  0  0
 42 43  2  0  0  0  0
 42 44  1  0  0  0  0
 44 45  1  0  0  0  0
 44 49  1  0  0  0  0
 45 46  1  0  0  0  0
 46 47  1  0  0  0  0
 47 48  1  0  0  0  0
 48 49  1  0  0  0  0
 49 50  1  0  0  0  0
 50 51  2  0  0  0  0
 50 52  1  0  0  0  0
 52 53  1  0  0  0  0
 52 54  1  0  0  0  0
 54 55  1  0  0  0  0
 55 56  2  0  0  0  0
 55 57  1  0  0  0  0
 57 58  1  0  0  0  0
 57 67  1  0  0  0  0
 58 59  1  0  0  0  0
 59 60  2  0  0  0  0
 59 66  1  0  0  0  0
 60 61  1  0  0  0  0
 61 62  2  0  0  0  0
 62 63  1  0  0  0  0
 62 65  1  0  0  0  0
 63 64  1  0  0  0  0
 65 66  2  0  0  0  0
 67 68  1  0  0  0  0
 68 69  2  0  0  0  0
 68 70  1  0  0  0  0
 70 71  1  0  0  0  0
 70 74  1  0  0  0  0
 71 72  1  0  0  0  0
 71 73  1  0  0  0  0
 74 75  1  0  0  0  0
 74 76  1  0  0  0  0
 76 77  2  0  0  0  0
 76 78  1  0  0  0  0
 78 79  1  0  0  0  0
 79 80  1  0  0  0  0
 80 81  2  0  0  0  0
 82 83  1  0  0  0  0
 82 84  1  0  0  0  0
M  END
$$$$

 OpenBabel12191814062D

 83 85  0  0  0  0  0  0  0  0999 V2000
    2.2182   -8.3120    0.0000 C   0  0  0  0  0  0  0  0  0  0  0  0
    2.3897   -7.5050    0.0000 C   0  0  0  0  0  0  0  0  0  0  0  0
    1.7766   -6.9530    0.0000 C   0  0  3  0  0  0  0  0  0  0  0  0
    1.9482   -6.1460    0.0000 C   0  0  0  0  0  0  0  0  0  0  0  0
    0.9920   -7.2079    0.0000 C   0  0  3  0  0  0  0  0  0  0  0  0
    0.3789   -6.6559    0.0000 N   0  0  0  0  0  0  0  0  0  0  0  0
   -0.4416   -6.7421    0.0000 C   0  0  0  0  0  0  0  0  0  0  0  0
    0.8638   -5.9884    0.0000 C   0  0  0  0  0  0  0  0  0  0  0  0
    1.6708   -5.8169    0.0000 O   0  0  0  0  0  0  0  0  0  0  0  0
    0.5283   -5.2348    0.0000 C   0  0  3  0  0  0  0  0  0  0  0  0
    1.0132   -4.5673    0.0000 C   0  0  3  0  0  0  0  0  0  0  0  0
    0.6776   -3.8136    0.0000 C   0  0  0  0  0  0  0  0  0  0  0  0
    1.8337   -4.6536    0.0000 C   0  0  0  0  0  0  0  0  0  0  0  0
    2.1692   -5.4072    0.0000 C   0  0  0  0  0  0  0  0  0  0  0  0
   -0.2922   -5.1485    0.0000 N   0  0  0  0  0  0  0  0  0  0  0  0
   -0.9053   -5.7006    0.0000 C   0  0  0  0  0  0  0  0  0  0  0  0
   -0.2922   -4.3235    0.0000 C   0  0  0  0  0  0  0  0  0  0  0  0
    0.2598   -3.7104    0.0000 O   0  0  0  0  0  0  0  0  0  0  0  0
   -1.0067   -3.9110    0.0000 C   0  0  3  0  0  0  0  0  0  0  0  0
   -1.0067   -3.0860    0.0000 C   0  0  0  0  0  0  0  0  0  0  0  0
   -0.2922   -2.6735    0.0000 C   0  0  0  0  0  0  0  0  0  0  0  0
   -0.2922   -1.8485    0.0000 O   0  0  0  0  0  0  0  0  0  0  0  0
    0.4223   -3.0860    0.0000 N   0  0  0  0  0  0  0  0  0  0  0  0
    1.1367   -2.6735    0.0000 C   0  0  0  0  0  0  0  0  0  0  0  0
    1.8512   -3.0860    0.0000 C   0  0  0  0  0  0  0  0  0  0  0  0
    1.1367   -1.8485    0.0000 C   0  0  0  0  0  0  0  0  0  0  0  0
   -1.7211   -4.3235    0.0000 N   0  0  0  0  0  0  0  0  0  0  0  0
   -1.8927   -5.1305    0.0000 C   0  0  0  0  0  0  0  0  0  0  0  0
   -2.2061   -3.6561    0.0000 C   0  0  0  0  0  0  0  0  0  0  0  0
   -1.8705   -2.9024    0.0000 O   0  0  0  0  0  0  0  0  0  0  0  0
   -3.0265   -3.7423    0.0000 C   0  0  3  0  0  0  0  0  0  0  0  0
   -3.3621   -4.4960    0.0000 N   0  0  0  0  0  0  0  0  0  0  0  0
   -4.1467   -4.2411    0.0000 C   0  0  0  0  0  0  0  0  0  0  0  0
   -4.3183   -3.4341    0.0000 O   0  0  0  0  0  0  0  0  0  0  0  0
   -4.7598   -4.7931    0.0000 C   0  0  3  0  0  0  0  0  0  0  0  0
   -5.5444   -4.5382    0.0000 C   0  0  0  0  0  0  0  0  0  0  0  0
   -6.1575   -5.0902    0.0000 C   0  0  0  0  0  0  0  0  0  0  0  0
   -5.7160   -3.7312    0.0000 C   0  0  0  0  0  0  0  0  0  0  0  0
   -4.5883   -5.6001    0.0000 N   0  0  0  0  0  0  0  0  0  0  0  0
   -3.8738   -6.0126    0.0000 C   0  0  0  0  0  0  0  0  0  0  0  0
   -5.3729   -5.8550    0.0000 C   0  0  0  0  0  0  0  0  0  0  0  0
   -6.1266   -5.5194    0.0000 O   0  0  0  0  0  0  0  0  0  0  0  0
   -5.5444   -6.6620    0.0000 C   0  0  3  0  0  0  0  0  0  0  0  0
   -6.3291   -6.9169    0.0000 C   0  0  0  0  0  0  0  0  0  0  0  0
   -6.5006   -7.7239    0.0000 C   0  0  0  0  0  0  0  0  0  0  0  0
   -5.8875   -8.2759    0.0000 C   0  0  0  0  0  0  0  0  0  0  0  0
   -5.1029   -8.0210    0.0000 C   0  0  0  0  0  0  0  0  0  0  0  0
   -4.9313   -7.2140    0.0000 N   0  0  0  0  0  0  0  0  0  0  0  0
   -5.4163   -7.8814    0.0000 C   0  0  0  0  0  0  0  0  0  0  0  0
   -6.2232   -8.0530    0.0000 O   0  0  0  0  0  0  0  0  0  0  0  0
   -5.0807   -8.6351    0.0000 C   0  0  3  0  0  0  0  0  0  0  0  0
   -5.5656   -9.3026    0.0000 C   0  0  0  0  0  0  0  0  0  0  0  0
   -4.2602   -8.7214    0.0000 O   0  0  0  0  0  0  0  0  0  0  0  0
   -4.2602   -9.5464    0.0000 C   0  0  0  0  0  0  0  0  0  0  0  0
   -4.9747   -9.9589    0.0000 O   0  0  0  0  0  0  0  0  0  0  0  0
   -3.5458   -9.9589    0.0000 C   0  0  3  0  0  0  0  0  0  0  0  0
   -3.5458  -10.7839    0.0000 C   0  0  0  0  0  0  0  0  0  0  0  0
   -4.2602  -11.1964    0.0000 C   0  0  0  0  0  0  0  0  0  0  0  0
   -4.2602  -12.0214    0.0000 C   0  0  0  0  0  0  0  0  0  0  0  0
   -4.9747  -12.4339    0.0000 C   0  0  0  0  0  0  0  0  0  0  0  0
   -5.6892  -12.0214    0.0000 C   0  0  0  0  0  0  0  0  0  0  0  0
   -6.4036  -12.4339    0.0000 O   0  0  0  0  0  0  0  0  0  0  0  0
   -6.4036  -13.2589    0.0000 C   0  0  0  0  0  0  0  0  0  0  0  0
   -5.6892  -11.1964    0.0000 C   0  0  0  0  0  0  0  0  0  0  0  0
   -4.9747  -10.7839    0.0000 C   0  0  0  0  0  0  0  0  0  0  0  0
   -2.8313   -9.5464    0.0000 N   0  0  0  0  0  0  0  0  0  0  0  0
   -2.3464  -10.2138    0.0000 C   0  0  0  0  0  0  0  0  0  0  0  0
   -2.6819  -10.9675    0.0000 O   0  0  0  0  0  0  0  0  0  0  0  0
   -1.5259  -10.1276    0.0000 C   0  0  3  0  0  0  0  0  0  0  0  0
   -1.0410  -10.7950    0.0000 C   0  0  0  0  0  0  0  0  0  0  0  0
   -0.2205  -10.7088    0.0000 C   0  0  0  0  0  0  0  0  0  0  0  0
   -1.3765  -11.5487    0.0000 C   0  0  0  0  0  0  0  0  0  0  0  0
   -1.1903   -9.3739    0.0000 N   0  0  0  0  0  0  0  0  0  0  0  0
   -1.5259   -8.6202    0.0000 C   0  0  0  0  0  0  0  0  0  0  0  0
   -0.4057   -9.6288    0.0000 C   0  0  0  0  0  0  0  0  0  0  0  0
    0.0068  -10.3433    0.0000 O   0  0  0  0  0  0  0  0  0  0  0  0
    0.2074   -9.0768    0.0000 C   0  0  0  0  0  0  0  0  0  0  0  0
    0.0359   -8.2698    0.0000 N   0  0  0  0  0  0  0  0  0  0  0  0
    0.8205   -8.0149    0.0000 C   0  0  0  0  0  0  0  0  0  0  0  0
    1.4336   -8.5669    0.0000 O   0  0  0  0  0  0  0  0  0  0  0  0
   -3.5115   -3.0749    0.0000 C   0  0  0  0  0  0  0  0  0  0  0  0
   -4.3184   -2.9034    0.0000 C   0  0  0  0  0  0  0  0  0  0  0  0
   -3.1759   -2.3212    0.0000 C   0  0  0  0  0  0  0  0  0  0  0  0
  1  2  1  0  0  0  0
  2  3  1  0  0  0  0
  3  4  1  0  0  0  0
  3  5  1  0  0  0  0
  5  6  1  0  0  0  0
  5 79  1  0  0  0  0
  6  7  1  0  0  0  0
  6  8  1  0  0  0  0
  8  9  2  0  0  0  0
  8 10  1  0  0  0  0
 10 11  1  0  0  0  0
 10 15  1  0  0  0  0
 11 12  1  0  0  0  0
 11 13  1  0  0  0  0
 13 14  1  0  0  0  0
 15 16  1  0  0  0  0
 15 17  1  0  0  0  0
 17 18  2  0  0  0  0
 17 19  1  0  0  0  0
 19 20  1  0  0  0  0
 19 27  1  0  0  0  0
 20 21  1  0  0  0  0
 21 22  2  0  0  0  0
 21 23  1  0  0  0  0
 23 24  1  0  0  0  0
 24 25  1  0  0  0  0
 24 26  1  0  0  0  0
 27 28  1  0  0  0  0
 27 29  1  0  0  0  0
 29 30  2  0  0  0  0
 29 31  1  0  0  0  0
 31 32  1  0  0  0  0
 31 81  1  0  0  0  0
 32 33  1  0  0  0  0
 33 34  2  0  0  0  0
 33 35  1  0  0  0  0
 35 36  1  0  0  0  0
 35 39  1  0  0  0  0
 36 37  1  0  0  0  0
 36 38  1  0  0  0  0
 39 40  1  0  0  0  0
 39 41  1  0  0  0  0
 41 42  2  0  0  0  0
 41 43  1  0  0  0  0
 43 44  1  0  0  0  0
 43 48  1  0  0  0  0
 44 45  1  0  0  0  0
 45 46  1  0  0  0  0
 46 47  1  0  0  0  0
 47 48  1  0  0  0  0
 48 49  1  0  0  0  0
 49 50  2  0  0  0  0
 49 51  1  0  0  0  0
 51 52  1  0  0  0  0
 51 53  1  0  0  0  0
 53 54  1  0  0  0  0
 54 55  2  0  0  0  0
 54 56  1  0  0  0  0
 56 57  1  0  0  0  0
 56 66  1  0  0  0  0
 57 58  1  0  0  0  0
 58 59  2  0  0  0  0
 58 65  1  0  0  0  0
 59 60  1  0  0  0  0
 60 61  2  0  0  0  0
 61 62  1  0  0  0  0
 61 64  1  0  0  0  0
 62 63  1  0  0  0  0
 64 65  2  0  0  0  0
 66 67  1  0  0  0  0
 67 68  2  0  0  0  0
 67 69  1  0  0  0  0
 69 70  1  0  0  0  0
 69 73  1  0  0  0  0
 70 71  1  0  0  0  0
 70 72  1  0  0  0  0
 73 74  1  0  0  0  0
 73 75  1  0  0  0  0
 75 76  2  0  0  0  0
 75 77  1  0  0  0  0
 77 78  1  0  0  0  0
 78 79  1  0  0  0  0
 79 80  2  0  0  0  0
 81 82  1  0  0  0  0
 81 83  1  0  0  0  0
M  END
$$$$

 OpenBabel12191814062D

 93 97  0  0  0  0  0  0  0  0999 V2000
   14.3241   -2.5489    0.0000 C   0  0  0  0  0  0  0  0  0  0  0  0
   14.6173   -1.7778    0.0000 C   0  0  0  0  0  0  0  0  0  0  0  0
   14.0962   -1.1383    0.0000 C   0  0  3  0  0  0  0  0  0  0  0  0
   14.3895   -0.3672    0.0000 C   0  0  0  0  0  0  0  0  0  0  0  0
   13.2818   -1.2698    0.0000 C   0  0  3  0  0  0  0  0  0  0  0  0
   12.7606   -0.6303    0.0000 N   0  0  0  0  0  0  0  0  0  0  0  0
   11.9366   -0.5896    0.0000 C   0  0  0  0  0  0  0  0  0  0  0  0
   13.3422   -0.0451    0.0000 C   0  0  0  0  0  0  0  0  0  0  0  0
   14.1659    0.0006    0.0000 O   0  0  0  0  0  0  0  0  0  0  0  0
   13.1262    0.7511    0.0000 C   0  0  3  0  0  0  0  0  0  0  0  0
   13.7078    1.3362    0.0000 C   0  0  3  0  0  0  0  0  0  0  0  0
   13.4918    2.1325    0.0000 C   0  0  0  0  0  0  0  0  0  0  0  0
   14.5053    1.1252    0.0000 C   0  0  0  0  0  0  0  0  0  0  0  0
   14.7213    0.3289    0.0000 C   0  0  0  0  0  0  0  0  0  0  0  0
   12.3287    0.9622    0.0000 N   0  0  0  0  0  0  0  0  0  0  0  0
   11.6381    0.5107    0.0000 C   0  0  0  0  0  0  0  0  0  0  0  0
   12.4552    1.7774    0.0000 C   0  0  0  0  0  0  0  0  0  0  0  0
   13.0948    2.2986    0.0000 O   0  0  0  0  0  0  0  0  0  0  0  0
   11.8125    2.2946    0.0000 C   0  0  3  0  0  0  0  0  0  0  0  0
   11.9391    3.1099    0.0000 C   0  0  0  0  0  0  0  0  0  0  0  0
   12.7083    3.4079    0.0000 C   0  0  0  0  0  0  0  0  0  0  0  0
   12.8349    4.2231    0.0000 O   0  0  0  0  0  0  0  0  0  0  0  0
   13.3511    2.8907    0.0000 N   0  0  0  0  0  0  0  0  0  0  0  0
   14.1204    3.1887    0.0000 C   0  0  0  0  0  0  0  0  0  0  0  0
   14.7631    2.6714    0.0000 C   0  0  0  0  0  0  0  0  0  0  0  0
   15.5324    2.9695    0.0000 C   0  0  0  0  0  0  0  0  0  0  0  0
   16.1751    2.4522    0.0000 C   0  0  0  0  0  0  0  0  0  0  0  0
   16.0486    1.6370    0.0000 C   0  0  0  0  0  0  0  0  0  0  0  0
   15.2793    1.3390    0.0000 C   0  0  0  0  0  0  0  0  0  0  0  0
   14.6365    1.8562    0.0000 C   0  0  0  0  0  0  0  0  0  0  0  0
   14.2469    4.0039    0.0000 C   0  0  0  0  0  0  0  0  0  0  0  0
   13.6042    4.5211    0.0000 C   0  0  0  0  0  0  0  0  0  0  0  0
   13.7308    5.3364    0.0000 C   0  0  0  0  0  0  0  0  0  0  0  0
   14.5001    5.6344    0.0000 C   0  0  0  0  0  0  0  0  0  0  0  0
   15.1428    5.1171    0.0000 C   0  0  0  0  0  0  0  0  0  0  0  0
   15.0162    4.3019    0.0000 C   0  0  0  0  0  0  0  0  0  0  0  0
   11.0432    1.9966    0.0000 N   0  0  0  0  0  0  0  0  0  0  0  0
   10.7499    1.2255    0.0000 C   0  0  0  0  0  0  0  0  0  0  0  0
   10.6664    2.7305    0.0000 C   0  0  0  0  0  0  0  0  0  0  0  0
   11.1136    3.4238    0.0000 O   0  0  0  0  0  0  0  0  0  0  0  0
    9.8424    2.7712    0.0000 C   0  0  3  0  0  0  0  0  0  0  0  0
    9.3952    2.0779    0.0000 N   0  0  0  0  0  0  0  0  0  0  0  0
    8.6590    2.4502    0.0000 C   0  0  0  0  0  0  0  0  0  0  0  0
    8.6133    3.2739    0.0000 O   0  0  0  0  0  0  0  0  0  0  0  0
    7.9685    1.9988    0.0000 C   0  0  3  0  0  0  0  0  0  0  0  0
    7.2322    2.3711    0.0000 C   0  0  0  0  0  0  0  0  0  0  0  0
    6.5417    1.9196    0.0000 C   0  0  0  0  0  0  0  0  0  0  0  0
    7.1865    3.1948    0.0000 C   0  0  0  0  0  0  0  0  0  0  0  0
    8.0142    1.1750    0.0000 N   0  0  0  0  0  0  0  0  0  0  0  0
    8.6569    0.6578    0.0000 C   0  0  0  0  0  0  0  0  0  0  0  0
    7.1997    1.0435    0.0000 C   0  0  0  0  0  0  0  0  0  0  0  0
    6.5064    1.4907    0.0000 O   0  0  0  0  0  0  0  0  0  0  0  0
    6.9064    0.2724    0.0000 C   0  0  3  0  0  0  0  0  0  0  0  0
    6.0920    0.1408    0.0000 C   0  0  0  0  0  0  0  0  0  0  0  0
    5.7987   -0.6303    0.0000 C   0  0  0  0  0  0  0  0  0  0  0  0
    6.3198   -1.2698    0.0000 C   0  0  0  0  0  0  0  0  0  0  0  0
    7.1343   -1.1383    0.0000 C   0  0  0  0  0  0  0  0  0  0  0  0
    7.4276   -0.3672    0.0000 N   0  0  0  0  0  0  0  0  0  0  0  0
    6.8460   -0.9523    0.0000 C   0  0  0  0  0  0  0  0  0  0  0  0
    6.0223   -0.9980    0.0000 O   0  0  0  0  0  0  0  0  0  0  0  0
    7.0620   -1.7486    0.0000 C   0  0  3  0  0  0  0  0  0  0  0  0
    6.4804   -2.3337    0.0000 C   0  0  0  0  0  0  0  0  0  0  0  0
    7.8595   -1.9596    0.0000 O   0  0  0  0  0  0  0  0  0  0  0  0
    7.7329   -2.7749    0.0000 C   0  0  0  0  0  0  0  0  0  0  0  0
    6.9637   -3.0729    0.0000 O   0  0  0  0  0  0  0  0  0  0  0  0
    8.3757   -3.2921    0.0000 C   0  0  3  0  0  0  0  0  0  0  0  0
    8.2491   -4.1073    0.0000 C   0  0  0  0  0  0  0  0  0  0  0  0
    7.4798   -4.4053    0.0000 C   0  0  0  0  0  0  0  0  0  0  0  0
    7.3533   -5.2206    0.0000 C   0  0  0  0  0  0  0  0  0  0  0  0
    6.5840   -5.5186    0.0000 C   0  0  0  0  0  0  0  0  0  0  0  0
    5.9412   -5.0014    0.0000 C   0  0  0  0  0  0  0  0  0  0  0  0
    5.1719   -5.2994    0.0000 O   0  0  0  0  0  0  0  0  0  0  0  0
    5.0454   -6.1146    0.0000 C   0  0  0  0  0  0  0  0  0  0  0  0
    6.0678   -4.1861    0.0000 C   0  0  0  0  0  0  0  0  0  0  0  0
    6.8371   -3.8881    0.0000 C   0  0  0  0  0  0  0  0  0  0  0  0
    9.1450   -2.9941    0.0000 N   0  0  0  0  0  0  0  0  0  0  0  0
    9.5218   -3.7280    0.0000 C   0  0  0  0  0  0  0  0  0  0  0  0
    9.0746   -4.4213    0.0000 O   0  0  0  0  0  0  0  0  0  0  0  0
   10.3458   -3.7687    0.0000 C   0  0  3  0  0  0  0  0  0  0  0  0
   10.7226   -4.5026    0.0000 C   0  0  0  0  0  0  0  0  0  0  0  0
   11.5466   -4.5433    0.0000 C   0  0  0  0  0  0  0  0  0  0  0  0
   10.2754   -5.1959    0.0000 C   0  0  0  0  0  0  0  0  0  0  0  0
   10.7930   -3.0754    0.0000 N   0  0  0  0  0  0  0  0  0  0  0  0
   10.5770   -2.2792    0.0000 C   0  0  0  0  0  0  0  0  0  0  0  0
   11.5292   -3.4477    0.0000 C   0  0  0  0  0  0  0  0  0  0  0  0
   11.8272   -4.2170    0.0000 O   0  0  0  0  0  0  0  0  0  0  0  0
   12.2197   -2.9962    0.0000 C   0  0  0  0  0  0  0  0  0  0  0  0
   12.1740   -2.1725    0.0000 N   0  0  0  0  0  0  0  0  0  0  0  0
   12.9885   -2.0409    0.0000 C   0  0  0  0  0  0  0  0  0  0  0  0
   13.5096   -2.6805    0.0000 O   0  0  0  0  0  0  0  0  0  0  0  0
    9.4656    3.5051    0.0000 C   0  0  0  0  0  0  0  0  0  0  0  0
    8.6945    3.7984    0.0000 C   0  0  0  0  0  0  0  0  0  0  0  0
    9.9128    4.1984    0.0000 C   0  0  0  0  0  0  0  0  0  0  0  0
  1  2  1  0  0  0  0
  2  3  1  0  0  0  0
  3  4  1  0  0  0  0
  3  5  1  0  0  0  0
  5  6  1  0  0  0  0
  5 89  1  0  0  0  0
  6  7  1  0  0  0  0
  6  8  1  0  0  0  0
  8  9  2  0  0  0  0
  8 10  1  0  0  0  0
 10 11  1  0  0  0  0
 10 15  1  0  0  0  0
 11 12  1  0  0  0  0
 11 13  1  0  0  0  0
 13 14  1  0  0  0  0
 15 16  1  0  0  0  0
 15 17  1  0  0  0  0
 17 18  2  0  0  0  0
 17 19  1  0  0  0  0
 19 20  1  0  0  0  0
 19 37  1  0  0  0  0
 20 21  1  0  0  0  0
 21 22  2  0  0  0  0
 21 23  1  0  0  0  0
 23 24  1  0  0  0  0
 24 25  1  0  0  0  0
 24 31  1  0  0  0  0
 25 26  2  0  0  0  0
 25 30  1  0  0  0  0
 26 27  1  0  0  0  0
 27 28  2  0  0  0  0
 28 29  1  0  0  0  0
 29 30  2  0  0  0  0
 31 32  2  0  0  0  0
 31 36  1  0  0  0  0
 32 33  1  0  0  0  0
 33 34  2  0  0  0  0
 34 35  1  0  0  0  0
 35 36  2  0  0  0  0
 37 38  1  0  0  0  0
 37 39  1  0  0  0  0
 39 40  2  0  0  0  0
 39 41  1  0  0  0  0
 41 42  1  0  0  0  0
 41 91  1  0  0  0  0
 42 43  1  0  0  0  0
 43 44  2  0  0  0  0
 43 45  1  0  0  0  0
 45 46  1  0  0  0  0
 45 49  1  0  0  0  0
 46 47  1  0  0  0  0
 46 48  1  0  0  0  0
 49 50  1  0  0  0  0
 49 51  1  0  0  0  0
 51 52  2  0  0  0  0
 51 53  1  0  0  0  0
 53 54  1  0  0  0  0
 53 58  1  0  0  0  0
 54 55  1  0  0  0  0
 55 56  1  0  0  0  0
 56 57  1  0  0  0  0
 57 58  1  0  0  0  0
 58 59  1  0  0  0  0
 59 60  2  0  0  0  0
 59 61  1  0  0  0  0
 61 62  1  0  0  0  0
 61 63  1  0  0  0  0
 63 64  1  0  0  0  0
 64 65  2  0  0  0  0
 64 66  1  0  0  0  0
 66 67  1  0  0  0  0
 66 76  1  0  0  0  0
 67 68  1  0  0  0  0
 68 69  2  0  0  0  0
 68 75  1  0  0  0  0
 69 70  1  0  0  0  0
 70 71  2  0  0  0  0
 71 72  1  0  0  0  0
 71 74  1  0  0  0  0
 72 73  1  0  0  0  0
 74 75  2  0  0  0  0
 76 77  1  0  0  0  0
 77 78  2  0  0  0  0
 77 79  1  0  0  0  0
 79 80  1  0  0  0  0
 79 83  1  0  0  0  0
 80 81  1  0  0  0  0
 80 82  1  0  0  0  0
 83 84  1  0  0  0  0
 83 85  1  0  0  0  0
 85 86  2  0  0  0  0
 85 87  1  0  0  0  0
 87 88  1  0  0  0  0
 88 89  1  0  0  0  0
 89 90  2  0  0  0  0
 91 92  1  0  0  0  0
 91 93  1  0  0  0  0
M  END
$$$$

 OpenBabel12191814062D

 86 88  0  0  0  0  0  0  0  0999 V2000
    0.7081   -8.7255    0.0000 C   0  0  0  0  0  0  0  0  0  0  0  0
    1.2602   -8.1124    0.0000 C   0  0  0  0  0  0  0  0  0  0  0  0
    1.0052   -7.3278    0.0000 C   0  0  3  0  0  0  0  0  0  0  0  0
    1.5572   -6.7147    0.0000 C   0  0  0  0  0  0  0  0  0  0  0  0
    0.1982   -7.1563    0.0000 C   0  0  3  0  0  0  0  0  0  0  0  0
   -0.0567   -6.3717    0.0000 N   0  0  0  0  0  0  0  0  0  0  0  0
   -0.8104   -6.0361    0.0000 C   0  0  0  0  0  0  0  0  0  0  0  0
    0.6970   -6.0361    0.0000 C   0  0  0  0  0  0  0  0  0  0  0  0
    1.4816   -6.2910    0.0000 O   0  0  0  0  0  0  0  0  0  0  0  0
    0.7832   -5.2156    0.0000 C   0  0  3  0  0  0  0  0  0  0  0  0
    1.5369   -4.8801    0.0000 C   0  0  3  0  0  0  0  0  0  0  0  0
    1.6231   -4.0596    0.0000 C   0  0  0  0  0  0  0  0  0  0  0  0
    2.2043   -5.3650    0.0000 C   0  0  0  0  0  0  0  0  0  0  0  0
    2.1181   -6.1855    0.0000 C   0  0  0  0  0  0  0  0  0  0  0  0
    0.1158   -4.7307    0.0000 N   0  0  0  0  0  0  0  0  0  0  0  0
   -0.6912   -4.9022    0.0000 C   0  0  0  0  0  0  0  0  0  0  0  0
    0.5283   -4.0162    0.0000 C   0  0  0  0  0  0  0  0  0  0  0  0
    1.3129   -3.7613    0.0000 O   0  0  0  0  0  0  0  0  0  0  0  0
    0.1158   -3.3018    0.0000 C   0  0  3  0  0  0  0  0  0  0  0  0
    0.5283   -2.5873    0.0000 C   0  0  0  0  0  0  0  0  0  0  0  0
    1.3533   -2.5873    0.0000 C   0  0  0  0  0  0  0  0  0  0  0  0
    1.7658   -1.8728    0.0000 O   0  0  0  0  0  0  0  0  0  0  0  0
    1.7658   -3.3018    0.0000 N   0  0  0  0  0  0  0  0  0  0  0  0
    2.5908   -3.3018    0.0000 C   0  0  3  0  0  0  0  0  0  0  0  0
    3.0033   -4.0162    0.0000 C   0  0  0  0  0  0  0  0  0  0  0  0
    3.8283   -4.0162    0.0000 O   0  0  0  0  0  0  0  0  0  0  0  0
    3.0033   -2.5873    0.0000 C   0  0  0  0  0  0  0  0  0  0  0  0
    2.5908   -1.8728    0.0000 C   0  0  0  0  0  0  0  0  0  0  0  0
    3.8283   -2.5873    0.0000 C   0  0  0  0  0  0  0  0  0  0  0  0
   -0.7092   -3.3018    0.0000 N   0  0  0  0  0  0  0  0  0  0  0  0
   -1.2613   -3.9149    0.0000 C   0  0  0  0  0  0  0  0  0  0  0  0
   -0.7955   -2.4813    0.0000 C   0  0  0  0  0  0  0  0  0  0  0  0
   -0.1280   -1.9964    0.0000 O   0  0  0  0  0  0  0  0  0  0  0  0
   -1.5491   -2.1457    0.0000 C   0  0  3  0  0  0  0  0  0  0  0  0
   -2.2166   -2.6306    0.0000 N   0  0  0  0  0  0  0  0  0  0  0  0
   -2.7686   -2.0176    0.0000 C   0  0  0  0  0  0  0  0  0  0  0  0
   -2.5137   -1.2329    0.0000 O   0  0  0  0  0  0  0  0  0  0  0  0
   -3.5756   -2.1891    0.0000 C   0  0  3  0  0  0  0  0  0  0  0  0
   -4.1276   -1.5760    0.0000 C   0  0  0  0  0  0  0  0  0  0  0  0
   -4.9346   -1.7475    0.0000 C   0  0  0  0  0  0  0  0  0  0  0  0
   -3.8727   -0.7914    0.0000 C   0  0  0  0  0  0  0  0  0  0  0  0
   -3.8305   -2.9737    0.0000 N   0  0  0  0  0  0  0  0  0  0  0  0
   -3.4180   -3.6882    0.0000 C   0  0  0  0  0  0  0  0  0  0  0  0
   -4.6375   -2.8022    0.0000 C   0  0  0  0  0  0  0  0  0  0  0  0
   -5.1224   -2.1347    0.0000 O   0  0  0  0  0  0  0  0  0  0  0  0
   -5.1895   -3.4153    0.0000 C   0  0  3  0  0  0  0  0  0  0  0  0
   -5.9965   -3.2437    0.0000 C   0  0  0  0  0  0  0  0  0  0  0  0
   -6.5485   -3.8568    0.0000 C   0  0  0  0  0  0  0  0  0  0  0  0
   -6.2936   -4.6415    0.0000 C   0  0  0  0  0  0  0  0  0  0  0  0
   -5.4866   -4.8130    0.0000 C   0  0  0  0  0  0  0  0  0  0  0  0
   -4.9346   -4.1999    0.0000 N   0  0  0  0  0  0  0  0  0  0  0  0
   -5.6883   -4.5354    0.0000 C   0  0  0  0  0  0  0  0  0  0  0  0
   -6.4729   -4.2805    0.0000 O   0  0  0  0  0  0  0  0  0  0  0  0
   -5.7745   -5.3559    0.0000 C   0  0  3  0  0  0  0  0  0  0  0  0
   -6.5282   -5.6915    0.0000 C   0  0  0  0  0  0  0  0  0  0  0  0
   -5.1071   -5.8408    0.0000 O   0  0  0  0  0  0  0  0  0  0  0  0
   -5.5196   -6.5553    0.0000 C   0  0  0  0  0  0  0  0  0  0  0  0
   -6.3446   -6.5553    0.0000 O   0  0  0  0  0  0  0  0  0  0  0  0
   -5.1071   -7.2698    0.0000 C   0  0  3  0  0  0  0  0  0  0  0  0
   -5.5196   -7.9843    0.0000 C   0  0  0  0  0  0  0  0  0  0  0  0
   -6.3446   -7.9843    0.0000 C   0  0  0  0  0  0  0  0  0  0  0  0
   -6.7571   -8.6987    0.0000 C   0  0  0  0  0  0  0  0  0  0  0  0
   -7.5821   -8.6987    0.0000 C   0  0  0  0  0  0  0  0  0  0  0  0
   -7.9946   -7.9843    0.0000 C   0  0  0  0  0  0  0  0  0  0  0  0
   -8.8196   -7.9843    0.0000 O   0  0  0  0  0  0  0  0  0  0  0  0
   -9.2321   -8.6987    0.0000 C   0  0  0  0  0  0  0  0  0  0  0  0
   -7.5821   -7.2698    0.0000 C   0  0  0  0  0  0  0  0  0  0  0  0
   -6.7571   -7.2698    0.0000 C   0  0  0  0  0  0  0  0  0  0  0  0
   -4.2821   -7.2698    0.0000 N   0  0  0  0  0  0  0  0  0  0  0  0
   -4.1958   -8.0903    0.0000 C   0  0  0  0  0  0  0  0  0  0  0  0
   -4.8633   -8.5752    0.0000 O   0  0  0  0  0  0  0  0  0  0  0  0
   -3.4421   -8.4258    0.0000 C   0  0  3  0  0  0  0  0  0  0  0  0
   -3.3559   -9.2463    0.0000 C   0  0  0  0  0  0  0  0  0  0  0  0
   -2.6022   -9.5819    0.0000 C   0  0  0  0  0  0  0  0  0  0  0  0
   -4.0233   -9.7312    0.0000 C   0  0  0  0  0  0  0  0  0  0  0  0
   -2.7747   -7.9409    0.0000 N   0  0  0  0  0  0  0  0  0  0  0  0
   -2.6885   -7.1204    0.0000 C   0  0  0  0  0  0  0  0  0  0  0  0
   -2.2227   -8.5540    0.0000 C   0  0  0  0  0  0  0  0  0  0  0  0
   -2.2227   -9.3790    0.0000 O   0  0  0  0  0  0  0  0  0  0  0  0
   -1.4157   -8.3825    0.0000 C   0  0  0  0  0  0  0  0  0  0  0  0
   -1.1608   -7.5979    0.0000 N   0  0  0  0  0  0  0  0  0  0  0  0
   -0.3538   -7.7694    0.0000 C   0  0  0  0  0  0  0  0  0  0  0  0
   -0.0988   -8.5540    0.0000 O   0  0  0  0  0  0  0  0  0  0  0  0
   -1.6354   -1.3252    0.0000 C   0  0  0  0  0  0  0  0  0  0  0  0
   -2.2485   -0.7732    0.0000 C   0  0  0  0  0  0  0  0  0  0  0  0
   -0.9679   -0.8403    0.0000 C   0  0  0  0  0  0  0  0  0  0  0  0
  1  2  1  0  0  0  0
  2  3  1  0  0  0  0
  3  4  1  0  0  0  0
  3  5  1  0  0  0  0
  5  6  1  0  0  0  0
  5 82  1  0  0  0  0
  6  7  1  0  0  0  0
  6  8  1  0  0  0  0
  8  9  2  0  0  0  0
  8 10  1  0  0  0  0
 10 11  1  0  0  0  0
 10 15  1  0  0  0  0
 11 12  1  0  0  0  0
 11 13  1  0  0  0  0
 13 14  1  0  0  0  0
 15 16  1  0  0  0  0
 15 17  1  0  0  0  0
 17 18  2  0  0  0  0
 17 19  1  0  0  0  0
 19 20  1  0  0  0  0
 19 30  1  0  0  0  0
 20 21  1  0  0  0  0
 21 22  2  0  0  0  0
 21 23  1  0  0  0  0
 23 24  1  0  0  0  0
 24 25  1  0  0  0  0
 24 27  1  0  0  0  0
 25 26  1  0  0  0  0
 27 28  1  0  0  0  0
 27 29  1  0  0  0  0
 30 31  1  0  0  0  0
 30 32  1  0  0  0  0
 32 33  2  0  0  0  0
 32 34  1  0  0  0  0
 34 35  1  0  0  0  0
 34 84  1  0  0  0  0
 35 36  1  0  0  0  0
 36 37  2  0  0  0  0
 36 38  1  0  0  0  0
 38 39  1  0  0  0  0
 38 42  1  0  0  0  0
 39 40  1  0  0  0  0
 39 41  1  0  0  0  0
 42 43  1  0  0  0  0
 42 44  1  0  0  0  0
 44 45  2  0  0  0  0
 44 46  1  0  0  0  0
 46 47  1  0  0  0  0
 46 51  1  0  0  0  0
 47 48  1  0  0  0  0
 48 49  1  0  0  0  0
 49 50  1  0  0  0  0
 50 51  1  0  0  0  0
 51 52  1  0  0  0  0
 52 53  2  0  0  0  0
 52 54  1  0  0  0  0
 54 55  1  0  0  0  0
 54 56  1  0  0  0  0
 56 57  1  0  0  0  0
 57 58  2  0  0  0  0
 57 59  1  0  0  0  0
 59 60  1  0  0  0  0
 59 69  1  0  0  0  0
 60 61  1  0  0  0  0
 61 62  2  0  0  0  0
 61 68  1  0  0  0  0
 62 63  1  0  0  0  0
 63 64  2  0  0  0  0
 64 65  1  0  0  0  0
 64 67  1  0  0  0  0
 65 66  1  0  0  0  0
 67 68  2  0  0  0  0
 69 70  1  0  0  0  0
 70 71  2  0  0  0  0
 70 72  1  0  0  0  0
 72 73  1  0  0  0  0
 72 76  1  0  0  0  0
 73 74  1  0  0  0  0
 73 75  1  0  0  0  0
 76 77  1  0  0  0  0
 76 78  1  0  0  0  0
 78 79  2  0  0  0  0
 78 80  1  0  0  0  0
 80 81  1  0  0  0  0
 81 82  1  0  0  0  0
 82 83  2  0  0  0  0
 84 85  1  0  0  0  0
 84 86  1  0  0  0  0
M  END
$$$$

 OpenBabel12191814062D

 90 92  0  0  0  0  0  0  0  0999 V2000
    0.7081   -8.7255    0.0000 C   0  0  0  0  0  0  0  0  0  0  0  0
    1.2602   -8.1124    0.0000 C   0  0  0  0  0  0  0  0  0  0  0  0
    1.0052   -7.3278    0.0000 C   0  0  3  0  0  0  0  0  0  0  0  0
    1.5572   -6.7147    0.0000 C   0  0  0  0  0  0  0  0  0  0  0  0
    0.1982   -7.1563    0.0000 C   0  0  3  0  0  0  0  0  0  0  0  0
   -0.0567   -6.3717    0.0000 N   0  0  0  0  0  0  0  0  0  0  0  0
   -0.8104   -6.0361    0.0000 C   0  0  0  0  0  0  0  0  0  0  0  0
    0.6970   -6.0361    0.0000 C   0  0  0  0  0  0  0  0  0  0  0  0
    1.4816   -6.2910    0.0000 O   0  0  0  0  0  0  0  0  0  0  0  0
    0.7832   -5.2156    0.0000 C   0  0  3  0  0  0  0  0  0  0  0  0
    1.5369   -4.8801    0.0000 C   0  0  3  0  0  0  0  0  0  0  0  0
    1.6231   -4.0596    0.0000 C   0  0  0  0  0  0  0  0  0  0  0  0
    2.2043   -5.3650    0.0000 C   0  0  0  0  0  0  0  0  0  0  0  0
    2.1181   -6.1855    0.0000 C   0  0  0  0  0  0  0  0  0  0  0  0
    0.1158   -4.7307    0.0000 N   0  0  0  0  0  0  0  0  0  0  0  0
   -0.6912   -4.9022    0.0000 C   0  0  0  0  0  0  0  0  0  0  0  0
    0.5283   -4.0162    0.0000 C   0  0  0  0  0  0  0  0  0  0  0  0
    1.3129   -3.7613    0.0000 O   0  0  0  0  0  0  0  0  0  0  0  0
    0.1158   -3.3018    0.0000 C   0  0  3  0  0  0  0  0  0  0  0  0
    0.5283   -2.5873    0.0000 C   0  0  0  0  0  0  0  0  0  0  0  0
    1.3533   -2.5873    0.0000 C   0  0  0  0  0  0  0  0  0  0  0  0
    1.7658   -1.8728    0.0000 O   0  0  0  0  0  0  0  0  0  0  0  0
    1.7658   -3.3018    0.0000 N   0  0  0  0  0  0  0  0  0  0  0  0
    2.5908   -3.3018    0.0000 C   0  0  3  0  0  0  0  0  0  0  0  0
    3.0033   -4.0162    0.0000 C   0  0  0  0  0  0  0  0  0  0  0  0
    3.8283   -4.0162    0.0000 O   0  0  0  0  0  0  0  0  0  0  0  0
    4.2408   -4.7307    0.0000 C   0  0  0  0  0  0  0  0  0  0  0  0
    4.6533   -5.4452    0.0000 C   0  0  0  0  0  0  0  0  0  0  0  0
    4.9552   -4.3182    0.0000 C   0  0  0  0  0  0  0  0  0  0  0  0
    3.5263   -5.1432    0.0000 C   0  0  0  0  0  0  0  0  0  0  0  0
    3.0033   -2.5873    0.0000 C   0  0  0  0  0  0  0  0  0  0  0  0
    2.5908   -1.8728    0.0000 C   0  0  0  0  0  0  0  0  0  0  0  0
    3.8283   -2.5873    0.0000 C   0  0  0  0  0  0  0  0  0  0  0  0
   -0.7092   -3.3018    0.0000 N   0  0  0  0  0  0  0  0  0  0  0  0
   -1.2613   -3.9149    0.0000 C   0  0  0  0  0  0  0  0  0  0  0  0
   -0.7955   -2.4813    0.0000 C   0  0  0  0  0  0  0  0  0  0  0  0
   -0.1280   -1.9964    0.0000 O   0  0  0  0  0  0  0  0  0  0  0  0
   -1.5491   -2.1457    0.0000 C   0  0  3  0  0  0  0  0  0  0  0  0
   -2.2166   -2.6306    0.0000 N   0  0  0  0  0  0  0  0  0  0  0  0
   -2.7686   -2.0176    0.0000 C   0  0  0  0  0  0  0  0  0  0  0  0
   -2.5137   -1.2329    0.0000 O   0  0  0  0  0  0  0  0  0  0  0  0
   -3.5756   -2.1891    0.0000 C   0  0  3  0  0  0  0  0  0  0  0  0
   -4.1276   -1.5760    0.0000 C   0  0  0  0  0  0  0  0  0  0  0  0
   -4.9346   -1.7475    0.0000 C   0  0  0  0  0  0  0  0  0  0  0  0
   -3.8727   -0.7914    0.0000 C   0  0  0  0  0  0  0  0  0  0  0  0
   -3.8305   -2.9737    0.0000 N   0  0  0  0  0  0  0  0  0  0  0  0
   -3.4180   -3.6882    0.0000 C   0  0  0  0  0  0  0  0  0  0  0  0
   -4.6375   -2.8022    0.0000 C   0  0  0  0  0  0  0  0  0  0  0  0
   -5.1224   -2.1347    0.0000 O   0  0  0  0  0  0  0  0  0  0  0  0
   -5.1895   -3.4153    0.0000 C   0  0  3  0  0  0  0  0  0  0  0  0
   -5.9965   -3.2437    0.0000 C   0  0  0  0  0  0  0  0  0  0  0  0
   -6.5485   -3.8568    0.0000 C   0  0  0  0  0  0  0  0  0  0  0  0
   -6.2936   -4.6415    0.0000 C   0  0  0  0  0  0  0  0  0  0  0  0
   -5.4866   -4.8130    0.0000 C   0  0  0  0  0  0  0  0  0  0  0  0
   -4.9346   -4.1999    0.0000 N   0  0  0  0  0  0  0  0  0  0  0  0
   -5.6883   -4.5354    0.0000 C   0  0  0  0  0  0  0  0  0  0  0  0
   -6.4729   -4.2805    0.0000 O   0  0  0  0  0  0  0  0  0  0  0  0
   -5.7745   -5.3559    0.0000 C   0  0  3  0  0  0  0  0  0  0  0  0
   -6.5282   -5.6915    0.0000 C   0  0  0  0  0  0  0  0  0  0  0  0
   -5.1071   -5.8408    0.0000 O   0  0  0  0  0  0  0  0  0  0  0  0
   -5.5196   -6.5553    0.0000 C   0  0  0  0  0  0  0  0  0  0  0  0
   -6.3446   -6.5553    0.0000 O   0  0  0  0  0  0  0  0  0  0  0  0
   -5.1071   -7.2698    0.0000 C   0  0  3  0  0  0  0  0  0  0  0  0
   -5.5196   -7.9843    0.0000 C   0  0  0  0  0  0  0  0  0  0  0  0
   -6.3446   -7.9843    0.0000 C   0  0  0  0  0  0  0  0  0  0  0  0
   -6.7571   -8.6987    0.0000 C   0  0  0  0  0  0  0  0  0  0  0  0
   -7.5821   -8.6987    0.0000 C   0  0  0  0  0  0  0  0  0  0  0  0
   -7.9946   -7.9843    0.0000 C   0  0  0  0  0  0  0  0  0  0  0  0
   -8.8196   -7.9843    0.0000 O   0  0  0  0  0  0  0  0  0  0  0  0
   -9.2321   -8.6987    0.0000 C   0  0  0  0  0  0  0  0  0  0  0  0
   -7.5821   -7.2698    0.0000 C   0  0  0  0  0  0  0  0  0  0  0  0
   -6.7571   -7.2698    0.0000 C   0  0  0  0  0  0  0  0  0  0  0  0
   -4.2821   -7.2698    0.0000 N   0  0  0  0  0  0  0  0  0  0  0  0
   -4.1958   -8.0903    0.0000 C   0  0  0  0  0  0  0  0  0  0  0  0
   -4.8633   -8.5752    0.0000 O   0  0  0  0  0  0  0  0  0  0  0  0
   -3.4421   -8.4258    0.0000 C   0  0  3  0  0  0  0  0  0  0  0  0
   -3.3559   -9.2463    0.0000 C   0  0  0  0  0  0  0  0  0  0  0  0
   -2.6022   -9.5819    0.0000 C   0  0  0  0  0  0  0  0  0  0  0  0
   -4.0233   -9.7312    0.0000 C   0  0  0  0  0  0  0  0  0  0  0  0
   -2.7747   -7.9409    0.0000 N   0  0  0  0  0  0  0  0  0  0  0  0
   -2.6885   -7.1204    0.0000 C   0  0  0  0  0  0  0  0  0  0  0  0
   -2.2227   -8.5540    0.0000 C   0  0  0  0  0  0  0  0  0  0  0  0
   -2.2227   -9.3790    0.0000 O   0  0  0  0  0  0  0  0  0  0  0  0
   -1.4157   -8.3825    0.0000 C   0  0  0  0  0  0  0  0  0  0  0  0
   -1.1608   -7.5979    0.0000 N   0  0  0  0  0  0  0  0  0  0  0  0
   -0.3538   -7.7694    0.0000 C   0  0  0  0  0  0  0  0  0  0  0  0
   -0.0988   -8.5540    0.0000 O   0  0  0  0  0  0  0  0  0  0  0  0
   -1.6354   -1.3252    0.0000 C   0  0  0  0  0  0  0  0  0  0  0  0
   -2.2485   -0.7732    0.0000 C   0  0  0  0  0  0  0  0  0  0  0  0
   -0.9679   -0.8403    0.0000 C   0  0  0  0  0  0  0  0  0  0  0  0
  1  2  1  0  0  0  0
  2  3  1  0  0  0  0
  3  4  1  0  0  0  0
  3  5  1  0  0  0  0
  5  6  1  0  0  0  0
  5 86  1  0  0  0  0
  6  7  1  0  0  0  0
  6  8  1  0  0  0  0
  8  9  2  0  0  0  0
  8 10  1  0  0  0  0
 10 11  1  0  0  0  0
 10 15  1  0  0  0  0
 11 12  1  0  0  0  0
 11 13  1  0  0  0  0
 13 14  1  0  0  0  0
 15 16  1  0  0  0  0
 15 17  1  0  0  0  0
 17 18  2  0  0  0  0
 17 19  1  0  0  0  0
 19 20  1  0  0  0  0
 19 34  1  0  0  0  0
 20 21  1  0  0  0  0
 21 22  2  0  0  0  0
 21 23  1  0  0  0  0
 23 24  1  0  0  0  0
 24 25  1  0  0  0  0
 24 31  1  0  0  0  0
 25 26  1  0  0  0  0
 26 27  1  0  0  0  0
 27 28  1  0  0  0  0
 27 29  1  0  0  0  0
 27 30  1  0  0  0  0
 31 32  1  0  0  0  0
 31 33  1  0  0  0  0
 34 35  1  0  0  0  0
 34 36  1  0  0  0  0
 36 37  2  0  0  0  0
 36 38  1  0  0  0  0
 38 39  1  0  0  0  0
 38 88  1  0  0  0  0
 39 40  1  0  0  0  0
 40 41  2  0  0  0  0
 40 42  1  0  0  0  0
 42 43  1  0  0  0  0
 42 46  1  0  0  0  0
 43 44  1  0  0  0  0
 43 45  1  0  0  0  0
 46 47  1  0  0  0  0
 46 48  1  0  0  0  0
 48 49  2  0  0  0  0
 48 50  1  0  0  0  0
 50 51  1  0  0  0  0
 50 55  1  0  0  0  0
 51 52  1  0  0  0  0
 52 53  1  0  0  0  0
 53 54  1  0  0  0  0
 54 55  1  0  0  0  0
 55 56  1  0  0  0  0
 56 57  2  0  0  0  0
 56 58  1  0  0  0  0
 58 59  1  0  0  0  0
 58 60  1  0  0  0  0
 60 61  1  0  0  0  0
 61 62  2  0  0  0  0
 61 63  1  0  0  0  0
 63 64  1  0  0  0  0
 63 73  1  0  0  0  0
 64 65  1  0  0  0  0
 65 66  2  0  0  0  0
 65 72  1  0  0  0  0
 66 67  1  0  0  0  0
 67 68  2  0  0  0  0
 68 69  1  0  0  0  0
 68 71  1  0  0  0  0
 69 70  1  0  0  0  0
 71 72  2  0  0  0  0
 73 74  1  0  0  0  0
 74 75  2  0  0  0  0
 74 76  1  0  0  0  0
 76 77  1  0  0  0  0
 76 80  1  0  0  0  0
 77 78  1  0  0  0  0
 77 79  1  0  0  0  0
 80 81  1  0  0  0  0
 80 82  1  0  0  0  0
 82 83  2  0  0  0  0
 82 84  1  0  0  0  0
 84 85  1  0  0  0  0
 85 86  1  0  0  0  0
 86 87  2  0  0  0  0
 88 89  1  0  0  0  0
 88 90  1  0  0  0  0
M  END
$$$$

 OpenBabel12191814062D

 93 96  0  0  0  0  0  0  0  0999 V2000
    3.7531   -7.8132    0.0000 C   0  0  0  0  0  0  0  0  0  0  0  0
    3.9247   -7.0063    0.0000 C   0  0  0  0  0  0  0  0  0  0  0  0
    3.3116   -6.4542    0.0000 C   0  0  3  0  0  0  0  0  0  0  0  0
    3.4831   -5.6473    0.0000 C   0  0  0  0  0  0  0  0  0  0  0  0
    2.5270   -6.7092    0.0000 C   0  0  3  0  0  0  0  0  0  0  0  0
    1.9139   -6.1571    0.0000 N   0  0  0  0  0  0  0  0  0  0  0  0
    1.0934   -6.2434    0.0000 C   0  0  0  0  0  0  0  0  0  0  0  0
    2.3988   -5.4897    0.0000 C   0  0  0  0  0  0  0  0  0  0  0  0
    3.2058   -5.3182    0.0000 O   0  0  0  0  0  0  0  0  0  0  0  0
    2.0632   -4.7360    0.0000 C   0  0  3  0  0  0  0  0  0  0  0  0
    2.5482   -4.0686    0.0000 C   0  0  3  0  0  0  0  0  0  0  0  0
    2.2126   -3.3149    0.0000 C   0  0  0  0  0  0  0  0  0  0  0  0
    3.3686   -4.1548    0.0000 C   0  0  0  0  0  0  0  0  0  0  0  0
    3.7042   -4.9085    0.0000 C   0  0  0  0  0  0  0  0  0  0  0  0
    1.2427   -4.6498    0.0000 N   0  0  0  0  0  0  0  0  0  0  0  0
    0.6297   -5.2018    0.0000 C   0  0  0  0  0  0  0  0  0  0  0  0
    1.2427   -3.8248    0.0000 C   0  0  0  0  0  0  0  0  0  0  0  0
    1.7948   -3.2117    0.0000 O   0  0  0  0  0  0  0  0  0  0  0  0
    0.5283   -3.4123    0.0000 C   0  0  3  0  0  0  0  0  0  0  0  0
    0.5283   -2.5873    0.0000 C   0  0  0  0  0  0  0  0  0  0  0  0
    1.2427   -2.1748    0.0000 C   0  0  0  0  0  0  0  0  0  0  0  0
    1.2427   -1.3498    0.0000 O   0  0  0  0  0  0  0  0  0  0  0  0
    1.9572   -2.5873    0.0000 N   0  0  0  0  0  0  0  0  0  0  0  0
    2.6717   -2.1748    0.0000 C   0  0  3  0  0  0  0  0  0  0  0  0
    3.3862   -2.5873    0.0000 C   0  0  0  0  0  0  0  0  0  0  0  0
    4.1006   -2.1748    0.0000 O   0  0  0  0  0  0  0  0  0  0  0  0
    4.8151   -2.5873    0.0000 C   0  0  0  0  0  0  0  0  0  0  0  0
    5.5296   -2.1748    0.0000 C   0  0  0  0  0  0  0  0  0  0  0  0
    5.5296   -1.3498    0.0000 C   0  0  0  0  0  0  0  0  0  0  0  0
    6.2440   -0.9373    0.0000 C   0  0  0  0  0  0  0  0  0  0  0  0
    6.9585   -1.3498    0.0000 C   0  0  0  0  0  0  0  0  0  0  0  0
    6.9585   -2.1748    0.0000 C   0  0  0  0  0  0  0  0  0  0  0  0
    6.2440   -2.5873    0.0000 C   0  0  0  0  0  0  0  0  0  0  0  0
    2.6717   -1.3498    0.0000 C   0  0  0  0  0  0  0  0  0  0  0  0
    3.3862   -0.9373    0.0000 C   0  0  0  0  0  0  0  0  0  0  0  0
    1.9572   -0.9373    0.0000 C   0  0  0  0  0  0  0  0  0  0  0  0
   -0.1862   -3.8248    0.0000 N   0  0  0  0  0  0  0  0  0  0  0  0
   -0.3577   -4.6318    0.0000 C   0  0  0  0  0  0  0  0  0  0  0  0
   -0.6711   -3.1574    0.0000 C   0  0  0  0  0  0  0  0  0  0  0  0
   -0.3356   -2.4037    0.0000 O   0  0  0  0  0  0  0  0  0  0  0  0
   -1.4916   -3.2436    0.0000 C   0  0  3  0  0  0  0  0  0  0  0  0
   -1.8272   -3.9973    0.0000 N   0  0  0  0  0  0  0  0  0  0  0  0
   -2.6118   -3.7423    0.0000 C   0  0  0  0  0  0  0  0  0  0  0  0
   -2.7833   -2.9354    0.0000 O   0  0  0  0  0  0  0  0  0  0  0  0
   -3.2249   -4.2944    0.0000 C   0  0  3  0  0  0  0  0  0  0  0  0
   -4.0095   -4.0394    0.0000 C   0  0  0  0  0  0  0  0  0  0  0  0
   -4.6226   -4.5914    0.0000 C   0  0  0  0  0  0  0  0  0  0  0  0
   -4.1810   -3.2324    0.0000 C   0  0  0  0  0  0  0  0  0  0  0  0
   -3.0533   -5.1013    0.0000 N   0  0  0  0  0  0  0  0  0  0  0  0
   -2.3389   -5.5138    0.0000 C   0  0  0  0  0  0  0  0  0  0  0  0
   -3.8380   -5.3563    0.0000 C   0  0  0  0  0  0  0  0  0  0  0  0
   -4.5916   -5.0207    0.0000 O   0  0  0  0  0  0  0  0  0  0  0  0
   -4.0095   -6.1632    0.0000 C   0  0  3  0  0  0  0  0  0  0  0  0
   -4.7941   -6.4182    0.0000 C   0  0  0  0  0  0  0  0  0  0  0  0
   -4.9656   -7.2251    0.0000 C   0  0  0  0  0  0  0  0  0  0  0  0
   -4.3525   -7.7772    0.0000 C   0  0  0  0  0  0  0  0  0  0  0  0
   -3.5679   -7.5222    0.0000 C   0  0  0  0  0  0  0  0  0  0  0  0
   -3.3964   -6.7153    0.0000 N   0  0  0  0  0  0  0  0  0  0  0  0
   -3.8813   -7.3827    0.0000 C   0  0  0  0  0  0  0  0  0  0  0  0
   -4.6883   -7.5542    0.0000 O   0  0  0  0  0  0  0  0  0  0  0  0
   -3.5458   -8.1364    0.0000 C   0  0  3  0  0  0  0  0  0  0  0  0
   -4.0307   -8.8038    0.0000 C   0  0  0  0  0  0  0  0  0  0  0  0
   -2.7253   -8.2226    0.0000 O   0  0  0  0  0  0  0  0  0  0  0  0
   -2.7253   -9.0476    0.0000 C   0  0  0  0  0  0  0  0  0  0  0  0
   -3.4398   -9.4601    0.0000 O   0  0  0  0  0  0  0  0  0  0  0  0
   -2.0108   -9.4601    0.0000 C   0  0  3  0  0  0  0  0  0  0  0  0
   -2.0108  -10.2851    0.0000 C   0  0  0  0  0  0  0  0  0  0  0  0
   -2.7253  -10.6976    0.0000 C   0  0  0  0  0  0  0  0  0  0  0  0
   -2.7253  -11.5226    0.0000 C   0  0  0  0  0  0  0  0  0  0  0  0
   -3.4398  -11.9351    0.0000 C   0  0  0  0  0  0  0  0  0  0  0  0
   -4.1542  -11.5226    0.0000 C   0  0  0  0  0  0  0  0  0  0  0  0
   -4.8687  -11.9351    0.0000 O   0  0  0  0  0  0  0  0  0  0  0  0
   -4.8687  -12.7601    0.0000 C   0  0  0  0  0  0  0  0  0  0  0  0
   -4.1542  -10.6976    0.0000 C   0  0  0  0  0  0  0  0  0  0  0  0
   -3.4398  -10.2851    0.0000 C   0  0  0  0  0  0  0  0  0  0  0  0
   -1.2963   -9.0476    0.0000 N   0  0  0  0  0  0  0  0  0  0  0  0
   -0.8114   -9.7151    0.0000 C   0  0  0  0  0  0  0  0  0  0  0  0
   -1.1470  -10.4687    0.0000 O   0  0  0  0  0  0  0  0  0  0  0  0
    0.0091   -9.6288    0.0000 C   0  0  3  0  0  0  0  0  0  0  0  0
    0.4940  -10.2963    0.0000 C   0  0  0  0  0  0  0  0  0  0  0  0
    1.3145  -10.2100    0.0000 C   0  0  0  0  0  0  0  0  0  0  0  0
    0.1584  -11.0499    0.0000 C   0  0  0  0  0  0  0  0  0  0  0  0
    0.3446   -8.8751    0.0000 N   0  0  0  0  0  0  0  0  0  0  0  0
    0.0091   -8.1215    0.0000 C   0  0  0  0  0  0  0  0  0  0  0  0
    1.1292   -9.1301    0.0000 C   0  0  0  0  0  0  0  0  0  0  0  0
    1.5417   -9.8446    0.0000 O   0  0  0  0  0  0  0  0  0  0  0  0
    1.7423   -8.5781    0.0000 C   0  0  0  0  0  0  0  0  0  0  0  0
    1.5708   -7.7711    0.0000 N   0  0  0  0  0  0  0  0  0  0  0  0
    2.3554   -7.5161    0.0000 C   0  0  0  0  0  0  0  0  0  0  0  0
    2.9685   -8.0682    0.0000 O   0  0  0  0  0  0  0  0  0  0  0  0
   -1.9765   -2.5761    0.0000 C   0  0  0  0  0  0  0  0  0  0  0  0
   -2.7835   -2.4046    0.0000 C   0  0  0  0  0  0  0  0  0  0  0  0
   -1.6410   -1.8225    0.0000 C   0  0  0  0  0  0  0  0  0  0  0  0
  1  2  1  0  0  0  0
  2  3  1  0  0  0  0
  3  4  1  0  0  0  0
  3  5  1  0  0  0  0
  5  6  1  0  0  0  0
  5 89  1  0  0  0  0
  6  7  1  0  0  0  0
  6  8  1  0  0  0  0
  8  9  2  0  0  0  0
  8 10  1  0  0  0  0
 10 11  1  0  0  0  0
 10 15  1  0  0  0  0
 11 12  1  0  0  0  0
 11 13  1  0  0  0  0
 13 14  1  0  0  0  0
 15 16  1  0  0  0  0
 15 17  1  0  0  0  0
 17 18  2  0  0  0  0
 17 19  1  0  0  0  0
 19 20  1  0  0  0  0
 19 37  1  0  0  0  0
 20 21  1  0  0  0  0
 21 22  2  0  0  0  0
 21 23  1  0  0  0  0
 23 24  1  0  0  0  0
 24 25  1  0  0  0  0
 24 34  1  0  0  0  0
 25 26  1  0  0  0  0
 26 27  1  0  0  0  0
 27 28  1  0  0  0  0
 28 29  2  0  0  0  0
 28 33  1  0  0  0  0
 29 30  1  0  0  0  0
 30 31  2  0  0  0  0
 31 32  1  0  0  0  0
 32 33  2  0  0  0  0
 34 35  1  0  0  0  0
 34 36  1  0  0  0  0
 37 38  1  0  0  0  0
 37 39  1  0  0  0  0
 39 40  2  0  0  0  0
 39 41  1  0  0  0  0
 41 42  1  0  0  0  0
 41 91  1  0  0  0  0
 42 43  1  0  0  0  0
 43 44  2  0  0  0  0
 43 45  1  0  0  0  0
 45 46  1  0  0  0  0
 45 49  1  0  0  0  0
 46 47  1  0  0  0  0
 46 48  1  0  0  0  0
 49 50  1  0  0  0  0
 49 51  1  0  0  0  0
 51 52  2  0  0  0  0
 51 53  1  0  0  0  0
 53 54  1  0  0  0  0
 53 58  1  0  0  0  0
 54 55  1  0  0  0  0
 55 56  1  0  0  0  0
 56 57  1  0  0  0  0
 57 58  1  0  0  0  0
 58 59  1  0  0  0  0
 59 60  2  0  0  0  0
 59 61  1  0  0  0  0
 61 62  1  0  0  0  0
 61 63  1  0  0  0  0
 63 64  1  0  0  0  0
 64 65  2  0  0  0  0
 64 66  1  0  0  0  0
 66 67  1  0  0  0  0
 66 76  1  0  0  0  0
 67 68  1  0  0  0  0
 68 69  2  0  0  0  0
 68 75  1  0  0  0  0
 69 70  1  0  0  0  0
 70 71  2  0  0  0  0
 71 72  1  0  0  0  0
 71 74  1  0  0  0  0
 72 73  1  0  0  0  0
 74 75  2  0  0  0  0
 76 77  1  0  0  0  0
 77 78  2  0  0  0  0
 77 79  1  0  0  0  0
 79 80  1  0  0  0  0
 79 83  1  0  0  0  0
 80 81  1  0  0  0  0
 80 82  1  0  0  0  0
 83 84  1  0  0  0  0
 83 85  1  0  0  0  0
 85 86  2  0  0  0  0
 85 87  1  0  0  0  0
 87 88  1  0  0  0  0
 88 89  1  0  0  0  0
 89 90  2  0  0  0  0
 91 92  1  0  0  0  0
 91 93  1  0  0  0  0
M  END
$$$$

 OpenBabel12191814062D

 90 95  0  0  0  0  0  0  0  0999 V2000
   -0.2922    3.4985    0.0000 C   0  0  0  0  0  0  0  0  0  0  0  0
   -0.7771    2.8311    0.0000 C   0  0  0  0  0  0  0  0  0  0  0  0
   -0.4416    2.0774    0.0000 C   0  0  3  0  0  0  0  0  0  0  0  0
   -0.9265    1.4100    0.0000 C   0  0  0  0  0  0  0  0  0  0  0  0
    0.3789    1.9912    0.0000 C   0  0  3  0  0  0  0  0  0  0  0  0
    0.7145    1.2375    0.0000 N   0  0  0  0  0  0  0  0  0  0  0  0
    1.4991    0.9826    0.0000 C   0  0  0  0  0  0  0  0  0  0  0  0
    0.0000    0.8250    0.0000 C   0  0  0  0  0  0  0  0  0  0  0  0
   -0.8070    0.9965    0.0000 O   0  0  0  0  0  0  0  0  0  0  0  0
    0.0000    0.0000    0.0000 C   0  0  3  0  0  0  0  0  0  0  0  0
   -0.7145   -0.4125    0.0000 C   0  0  3  0  0  0  0  0  0  0  0  0
   -0.7145   -1.2375    0.0000 C   0  0  0  0  0  0  0  0  0  0  0  0
   -1.4289    0.0000    0.0000 C   0  0  0  0  0  0  0  0  0  0  0  0
   -1.4289    0.8250    0.0000 C   0  0  0  0  0  0  0  0  0  0  0  0
    0.7145   -0.4125    0.0000 N   0  0  0  0  0  0  0  0  0  0  0  0
    1.4991   -0.1576    0.0000 C   0  0  0  0  0  0  0  0  0  0  0  0
    0.3789   -1.1662    0.0000 C   0  0  0  0  0  0  0  0  0  0  0  0
   -0.3748   -1.5017    0.0000 O   0  0  0  0  0  0  0  0  0  0  0  0
    0.8638   -1.8336    0.0000 C   0  0  3  0  0  0  0  0  0  0  0  0
    0.5283   -2.5873    0.0000 C   0  0  0  0  0  0  0  0  0  0  0  0
   -0.2922   -2.6735    0.0000 C   0  0  0  0  0  0  0  0  0  0  0  0
   -0.6278   -3.4272    0.0000 O   0  0  0  0  0  0  0  0  0  0  0  0
   -0.7771   -2.0061    0.0000 N   0  0  0  0  0  0  0  0  0  0  0  0
   -1.5976   -2.0923    0.0000 C   0  0  3  0  0  0  0  0  0  0  0  0
   -1.1491   -2.7847    0.0000 C   0  0  0  0  0  0  0  0  0  0  0  0
   -1.9820   -2.4203    0.0000 C   0  0  3  0  0  0  0  0  0  0  0  0
   -2.7254   -2.4984    0.0000 C   0  0  0  0  0  0  0  0  0  0  0  0
   -3.1739   -1.8059    0.0000 C   0  0  3  0  0  0  0  0  0  0  0  0
   -2.8790   -1.0353    0.0000 C   0  0  0  0  0  0  0  0  0  0  0  0
   -2.1357   -0.9572    0.0000 C   0  0  3  0  0  0  0  0  0  0  0  0
   -1.6872   -1.6498    0.0000 C   0  0  0  0  0  0  0  0  0  0  0  0
   -1.3028   -1.3217    0.0000 C   0  0  0  0  0  0  0  0  0  0  0  0
   -2.3409   -2.1704    0.0000 C   0  0  0  0  0  0  0  0  0  0  0  0
    1.6843   -1.7474    0.0000 N   0  0  0  0  0  0  0  0  0  0  0  0
    2.1692   -1.0799    0.0000 C   0  0  0  0  0  0  0  0  0  0  0  0
    1.8558   -2.5543    0.0000 C   0  0  0  0  0  0  0  0  0  0  0  0
    1.2427   -3.1064    0.0000 O   0  0  0  0  0  0  0  0  0  0  0  0
    2.6405   -2.8093    0.0000 C   0  0  3  0  0  0  0  0  0  0  0  0
    3.2536   -2.2573    0.0000 N   0  0  0  0  0  0  0  0  0  0  0  0
    3.8667   -2.8093    0.0000 C   0  0  0  0  0  0  0  0  0  0  0  0
    3.6951   -3.6163    0.0000 O   0  0  0  0  0  0  0  0  0  0  0  0
    4.6513   -2.5543    0.0000 C   0  0  3  0  0  0  0  0  0  0  0  0
    5.2644   -3.1064    0.0000 C   0  0  0  0  0  0  0  0  0  0  0  0
    6.0490   -2.8514    0.0000 C   0  0  0  0  0  0  0  0  0  0  0  0
    5.0928   -3.9134    0.0000 C   0  0  0  0  0  0  0  0  0  0  0  0
    4.8228   -1.7474    0.0000 N   0  0  0  0  0  0  0  0  0  0  0  0
    4.3379   -1.0799    0.0000 C   0  0  0  0  0  0  0  0  0  0  0  0
    5.6433   -1.8336    0.0000 C   0  0  0  0  0  0  0  0  0  0  0  0
    6.1953   -2.4467    0.0000 O   0  0  0  0  0  0  0  0  0  0  0  0
    6.1282   -1.1662    0.0000 C   0  0  3  0  0  0  0  0  0  0  0  0
    6.9487   -1.2524    0.0000 C   0  0  0  0  0  0  0  0  0  0  0  0
    7.4336   -0.5850    0.0000 C   0  0  0  0  0  0  0  0  0  0  0  0
    7.0981    0.1687    0.0000 C   0  0  0  0  0  0  0  0  0  0  0  0
    6.2776    0.2549    0.0000 C   0  0  0  0  0  0  0  0  0  0  0  0
    5.7926   -0.4125    0.0000 N   0  0  0  0  0  0  0  0  0  0  0  0
    6.5071   -0.0000    0.0000 C   0  0  0  0  0  0  0  0  0  0  0  0
    7.3141   -0.1715    0.0000 O   0  0  0  0  0  0  0  0  0  0  0  0
    6.5071    0.8250    0.0000 C   0  0  3  0  0  0  0  0  0  0  0  0
    7.2216    1.2375    0.0000 C   0  0  0  0  0  0  0  0  0  0  0  0
    5.7926    1.2375    0.0000 O   0  0  0  0  0  0  0  0  0  0  0  0
    6.1282    1.9912    0.0000 C   0  0  0  0  0  0  0  0  0  0  0  0
    6.9487    2.0774    0.0000 O   0  0  0  0  0  0  0  0  0  0  0  0
    5.6433    2.6586    0.0000 C   0  0  3  0  0  0  0  0  0  0  0  0
    5.9788    3.4123    0.0000 C   0  0  0  0  0  0  0  0  0  0  0  0
    6.7993    3.4985    0.0000 C   0  0  0  0  0  0  0  0  0  0  0  0
    7.1349    4.2522    0.0000 C   0  0  0  0  0  0  0  0  0  0  0  0
    7.9554    4.3384    0.0000 C   0  0  0  0  0  0  0  0  0  0  0  0
    8.4403    3.6710    0.0000 C   0  0  0  0  0  0  0  0  0  0  0  0
    9.2608    3.7572    0.0000 O   0  0  0  0  0  0  0  0  0  0  0  0
    9.5963    4.5109    0.0000 C   0  0  0  0  0  0  0  0  0  0  0  0
    8.1047    2.9173    0.0000 C   0  0  0  0  0  0  0  0  0  0  0  0
    7.2842    2.8311    0.0000 C   0  0  0  0  0  0  0  0  0  0  0  0
    4.8228    2.5724    0.0000 N   0  0  0  0  0  0  0  0  0  0  0  0
    4.6513    3.3793    0.0000 C   0  0  0  0  0  0  0  0  0  0  0  0
    5.2644    3.9314    0.0000 O   0  0  0  0  0  0  0  0  0  0  0  0
    3.8667    3.6343    0.0000 C   0  0  3  0  0  0  0  0  0  0  0  0
    3.6951    4.4413    0.0000 C   0  0  0  0  0  0  0  0  0  0  0  0
    2.9105    4.6962    0.0000 C   0  0  0  0  0  0  0  0  0  0  0  0
    4.3082    4.9933    0.0000 C   0  0  0  0  0  0  0  0  0  0  0  0
    3.2536    3.0823    0.0000 N   0  0  0  0  0  0  0  0  0  0  0  0
    3.2536    2.2573    0.0000 C   0  0  0  0  0  0  0  0  0  0  0  0
    2.6405    3.6343    0.0000 C   0  0  0  0  0  0  0  0  0  0  0  0
    2.5542    4.4548    0.0000 O   0  0  0  0  0  0  0  0  0  0  0  0
    1.8558    3.3793    0.0000 C   0  0  0  0  0  0  0  0  0  0  0  0
    1.6843    2.5724    0.0000 N   0  0  0  0  0  0  0  0  0  0  0  0
    0.8638    2.6586    0.0000 C   0  0  0  0  0  0  0  0  0  0  0  0
    0.5283    3.4123    0.0000 O   0  0  0  0  0  0  0  0  0  0  0  0
    2.8120   -3.6163    0.0000 C   0  0  0  0  0  0  0  0  0  0  0  0
    3.4794   -4.1012    0.0000 C   0  0  0  0  0  0  0  0  0  0  0  0
    2.1989   -4.1683    0.0000 C   0  0  0  0  0  0  0  0  0  0  0  0
  1  2  1  0  0  0  0
  2  3  1  0  0  0  0
  3  4  1  0  0  0  0
  3  5  1  0  0  0  0
  5  6  1  0  0  0  0
  5 86  1  0  0  0  0
  6  7  1  0  0  0  0
  6  8  1  0  0  0  0
  8  9  2  0  0  0  0
  8 10  1  0  0  0  0
 10 11  1  0  0  0  0
 10 15  1  0  0  0  0
 11 12  1  0  0  0  0
 11 13  1  0  0  0  0
 13 14  1  0  0  0  0
 15 16  1  0  0  0  0
 15 17  1  0  0  0  0
 17 18  2  0  0  0  0
 17 19  1  0  0  0  0
 19 20  1  0  0  0  0
 19 34  1  0  0  0  0
 20 21  1  0  0  0  0
 21 22  2  0  0  0  0
 21 23  1  0  0  0  0
 23 24  1  0  0  0  0
 24 25  1  0  0  0  0
 24 32  1  0  0  0  0
 24 33  1  0  0  0  0
 25 26  1  0  0  0  0
 26 27  1  0  0  0  0
 26 31  1  0  0  0  0
 27 28  1  0  0  0  0
 28 29  1  0  0  0  0
 28 33  1  0  0  0  0
 29 30  1  0  0  0  0
 30 31  1  0  0  0  0
 30 32  1  0  0  0  0
 34 35  1  0  0  0  0
 34 36  1  0  0  0  0
 36 37  2  0  0  0  0
 36 38  1  0  0  0  0
 38 39  1  0  0  0  0
 38 88  1  0  0  0  0
 39 40  1  0  0  0  0
 40 41  2  0  0  0  0
 40 42  1  0  0  0  0
 42 43  1  0  0  0  0
 42 46  1  0  0  0  0
 43 44  1  0  0  0  0
 43 45  1  0  0  0  0
 46 47  1  0  0  0  0
 46 48  1  0  0  0  0
 48 49  2  0  0  0  0
 48 50  1  0  0  0  0
 50 51  1  0  0  0  0
 50 55  1  0  0  0  0
 51 52  1  0  0  0  0
 52 53  1  0  0  0  0
 53 54  1  0  0  0  0
 54 55  1  0  0  0  0
 55 56  1  0  0  0  0
 56 57  2  0  0  0  0
 56 58  1  0  0  0  0
 58 59  1  0  0  0  0
 58 60  1  0  0  0  0
 60 61  1  0  0  0  0
 61 62  2  0  0  0  0
 61 63  1  0  0  0  0
 63 64  1  0  0  0  0
 63 73  1  0  0  0  0
 64 65  1  0  0  0  0
 65 66  2  0  0  0  0
 65 72  1  0  0  0  0
 66 67  1  0  0  0  0
 67 68  2  0  0  0  0
 68 69  1  0  0  0  0
 68 71  1  0  0  0  0
 69 70  1  0  0  0  0
 71 72  2  0  0  0  0
 73 74  1  0  0  0  0
 74 75  2  0  0  0  0
 74 76  1  0  0  0  0
 76 77  1  0  0  0  0
 76 80  1  0  0  0  0
 77 78  1  0  0  0  0
 77 79  1  0  0  0  0
 80 81  1  0  0  0  0
 80 82  1  0  0  0  0
 82 83  2  0  0  0  0
 82 84  1  0  0  0  0
 84 85  1  0  0  0  0
 85 86  1  0  0  0  0
 86 87  2  0  0  0  0
 88 89  1  0  0  0  0
 88 90  1  0  0  0  0
M  END
$$$$

 OpenBabel12191814062D

 85 88  0  0  0  0  0  0  0  0999 V2000
   14.3241   -2.5489    0.0000 C   0  0  0  0  0  0  0  0  0  0  0  0
   14.6173   -1.7778    0.0000 C   0  0  0  0  0  0  0  0  0  0  0  0
   14.0962   -1.1383    0.0000 C   0  0  3  0  0  0  0  0  0  0  0  0
   14.3895   -0.3672    0.0000 C   0  0  0  0  0  0  0  0  0  0  0  0
   13.2818   -1.2698    0.0000 C   0  0  3  0  0  0  0  0  0  0  0  0
   12.7606   -0.6303    0.0000 N   0  0  0  0  0  0  0  0  0  0  0  0
   11.9366   -0.5896    0.0000 C   0  0  0  0  0  0  0  0  0  0  0  0
   13.3422   -0.0451    0.0000 C   0  0  0  0  0  0  0  0  0  0  0  0
   14.1659    0.0006    0.0000 O   0  0  0  0  0  0  0  0  0  0  0  0
   13.1262    0.7511    0.0000 C   0  0  3  0  0  0  0  0  0  0  0  0
   13.7078    1.3362    0.0000 C   0  0  3  0  0  0  0  0  0  0  0  0
   13.4918    2.1325    0.0000 C   0  0  0  0  0  0  0  0  0  0  0  0
   14.5053    1.1252    0.0000 C   0  0  0  0  0  0  0  0  0  0  0  0
   14.7213    0.3289    0.0000 C   0  0  0  0  0  0  0  0  0  0  0  0
   12.3287    0.9622    0.0000 N   0  0  0  0  0  0  0  0  0  0  0  0
   11.6381    0.5107    0.0000 C   0  0  0  0  0  0  0  0  0  0  0  0
   12.4552    1.7774    0.0000 C   0  0  0  0  0  0  0  0  0  0  0  0
   13.0948    2.2986    0.0000 O   0  0  0  0  0  0  0  0  0  0  0  0
   11.8125    2.2946    0.0000 C   0  0  3  0  0  0  0  0  0  0  0  0
   11.9391    3.1099    0.0000 C   0  0  0  0  0  0  0  0  0  0  0  0
   12.7083    3.4079    0.0000 C   0  0  0  0  0  0  0  0  0  0  0  0
   12.8349    4.2231    0.0000 O   0  0  0  0  0  0  0  0  0  0  0  0
   13.3511    2.8907    0.0000 N   0  0  0  0  0  0  0  0  0  0  0  0
   14.1204    3.1887    0.0000 C   0  0  0  0  0  0  0  0  0  0  0  0
   14.3315    3.9862    0.0000 C   0  0  0  0  0  0  0  0  0  0  0  0
   15.1552    4.0319    0.0000 C   0  0  0  0  0  0  0  0  0  0  0  0
   15.4532    3.2626    0.0000 C   0  0  0  0  0  0  0  0  0  0  0  0
   14.8137    2.7415    0.0000 O   0  0  0  0  0  0  0  0  0  0  0  0
   11.0432    1.9966    0.0000 N   0  0  0  0  0  0  0  0  0  0  0  0
   10.7499    1.2255    0.0000 C   0  0  0  0  0  0  0  0  0  0  0  0
   10.6664    2.7305    0.0000 C   0  0  0  0  0  0  0  0  0  0  0  0
   11.1136    3.4238    0.0000 O   0  0  0  0  0  0  0  0  0  0  0  0
    9.8424    2.7712    0.0000 C   0  0  3  0  0  0  0  0  0  0  0  0
    9.3952    2.0779    0.0000 N   0  0  0  0  0  0  0  0  0  0  0  0
    8.6590    2.4502    0.0000 C   0  0  0  0  0  0  0  0  0  0  0  0
    8.6133    3.2739    0.0000 O   0  0  0  0  0  0  0  0  0  0  0  0
    7.9685    1.9988    0.0000 C   0  0  3  0  0  0  0  0  0  0  0  0
    7.2322    2.3711    0.0000 C   0  0  0  0  0  0  0  0  0  0  0  0
    6.5417    1.9196    0.0000 C   0  0  0  0  0  0  0  0  0  0  0  0
    7.1865    3.1948    0.0000 C   0  0  0  0  0  0  0  0  0  0  0  0
    8.0142    1.1750    0.0000 N   0  0  0  0  0  0  0  0  0  0  0  0
    8.6569    0.6578    0.0000 C   0  0  0  0  0  0  0  0  0  0  0  0
    7.1997    1.0435    0.0000 C   0  0  0  0  0  0  0  0  0  0  0  0
    6.5064    1.4907    0.0000 O   0  0  0  0  0  0  0  0  0  0  0  0
    6.9064    0.2724    0.0000 C   0  0  3  0  0  0  0  0  0  0  0  0
    6.0920    0.1408    0.0000 C   0  0  0  0  0  0  0  0  0  0  0  0
    5.7987   -0.6303    0.0000 C   0  0  0  0  0  0  0  0  0  0  0  0
    6.3198   -1.2698    0.0000 C   0  0  0  0  0  0  0  0  0  0  0  0
    7.1343   -1.1383    0.0000 C   0  0  0  0  0  0  0  0  0  0  0  0
    7.4276   -0.3672    0.0000 N   0  0  0  0  0  0  0  0  0  0  0  0
    6.8460   -0.9523    0.0000 C   0  0  0  0  0  0  0  0  0  0  0  0
    6.0223   -0.9980    0.0000 O   0  0  0  0  0  0  0  0  0  0  0  0
    7.0620   -1.7486    0.0000 C   0  0  3  0  0  0  0  0  0  0  0  0
    6.4804   -2.3337    0.0000 C   0  0  0  0  0  0  0  0  0  0  0  0
    7.8595   -1.9596    0.0000 O   0  0  0  0  0  0  0  0  0  0  0  0
    7.7329   -2.7749    0.0000 C   0  0  0  0  0  0  0  0  0  0  0  0
    6.9637   -3.0729    0.0000 O   0  0  0  0  0  0  0  0  0  0  0  0
    8.3757   -3.2921    0.0000 C   0  0  3  0  0  0  0  0  0  0  0  0
    8.2491   -4.1073    0.0000 C   0  0  0  0  0  0  0  0  0  0  0  0
    7.4798   -4.4053    0.0000 C   0  0  0  0  0  0  0  0  0  0  0  0
    7.3533   -5.2206    0.0000 C   0  0  0  0  0  0  0  0  0  0  0  0
    6.5840   -5.5186    0.0000 C   0  0  0  0  0  0  0  0  0  0  0  0
    5.9412   -5.0014    0.0000 C   0  0  0  0  0  0  0  0  0  0  0  0
    5.1719   -5.2994    0.0000 O   0  0  0  0  0  0  0  0  0  0  0  0
    5.0454   -6.1146    0.0000 C   0  0  0  0  0  0  0  0  0  0  0  0
    6.0678   -4.1861    0.0000 C   0  0  0  0  0  0  0  0  0  0  0  0
    6.8371   -3.8881    0.0000 C   0  0  0  0  0  0  0  0  0  0  0  0
    9.1450   -2.9941    0.0000 N   0  0  0  0  0  0  0  0  0  0  0  0
    9.5218   -3.7280    0.0000 C   0  0  0  0  0  0  0  0  0  0  0  0
    9.0746   -4.4213    0.0000 O   0  0  0  0  0  0  0  0  0  0  0  0
   10.3458   -3.7687    0.0000 C   0  0  3  0  0  0  0  0  0  0  0  0
   10.7226   -4.5026    0.0000 C   0  0  0  0  0  0  0  0  0  0  0  0
   11.5466   -4.5433    0.0000 C   0  0  0  0  0  0  0  0  0  0  0  0
   10.2754   -5.1959    0.0000 C   0  0  0  0  0  0  0  0  0  0  0  0
   10.7930   -3.0754    0.0000 N   0  0  0  0  0  0  0  0  0  0  0  0
   10.5770   -2.2792    0.0000 C   0  0  0  0  0  0  0  0  0  0  0  0
   11.5292   -3.4477    0.0000 C   0  0  0  0  0  0  0  0  0  0  0  0
   11.8272   -4.2170    0.0000 O   0  0  0  0  0  0  0  0  0  0  0  0
   12.2197   -2.9962    0.0000 C   0  0  0  0  0  0  0  0  0  0  0  0
   12.1740   -2.1725    0.0000 N   0  0  0  0  0  0  0  0  0  0  0  0
   12.9885   -2.0409    0.0000 C   0  0  0  0  0  0  0  0  0  0  0  0
   13.5096   -2.6805    0.0000 O   0  0  0  0  0  0  0  0  0  0  0  0
    9.4656    3.5051    0.0000 C   0  0  0  0  0  0  0  0  0  0  0  0
    8.6945    3.7984    0.0000 C   0  0  0  0  0  0  0  0  0  0  0  0
    9.9128    4.1984    0.0000 C   0  0  0  0  0  0  0  0  0  0  0  0
  1  2  1  0  0  0  0
  2  3  1  0  0  0  0
  3  4  1  0  0  0  0
  3  5  1  0  0  0  0
  5  6  1  0  0  0  0
  5 81  1  0  0  0  0
  6  7  1  0  0  0  0
  6  8  1  0  0  0  0
  8  9  2  0  0  0  0
  8 10  1  0  0  0  0
 10 11  1  0  0  0  0
 10 15  1  0  0  0  0
 11 12  1  0  0  0  0
 11 13  1  0  0  0  0
 13 14  1  0  0  0  0
 15 16  1  0  0  0  0
 15 17  1  0  0  0  0
 17 18  2  0  0  0  0
 17 19  1  0  0  0  0
 19 20  1  0  0  0  0
 19 29  1  0  0  0  0
 20 21  1  0  0  0  0
 21 22  2  0  0  0  0
 21 23  1  0  0  0  0
 23 24  1  0  0  0  0
 24 25  2  0  0  0  0
 24 28  1  0  0  0  0
 25 26  1  0  0  0  0
 26 27  2  0  0  0  0
 27 28  1  0  0  0  0
 29 30  1  0  0  0  0
 29 31  1  0  0  0  0
 31 32  2  0  0  0  0
 31 33  1  0  0  0  0
 33 34  1  0  0  0  0
 33 83  1  0  0  0  0
 34 35  1  0  0  0  0
 35 36  2  0  0  0  0
 35 37  1  0  0  0  0
 37 38  1  0  0  0  0
 37 41  1  0  0  0  0
 38 39  1  0  0  0  0
 38 40  1  0  0  0  0
 41 42  1  0  0  0  0
 41 43  1  0  0  0  0
 43 44  2  0  0  0  0
 43 45  1  0  0  0  0
 45 46  1  0  0  0  0
 45 50  1  0  0  0  0
 46 47  1  0  0  0  0
 47 48  1  0  0  0  0
 48 49  1  0  0  0  0
 49 50  1  0  0  0  0
 50 51  1  0  0  0  0
 51 52  2  0  0  0  0
 51 53  1  0  0  0  0
 53 54  1  0  0  0  0
 53 55  1  0  0  0  0
 55 56  1  0  0  0  0
 56 57  2  0  0  0  0
 56 58  1  0  0  0  0
 58 59  1  0  0  0  0
 58 68  1  0  0  0  0
 59 60  1  0  0  0  0
 60 61  2  0  0  0  0
 60 67  1  0  0  0  0
 61 62  1  0  0  0  0
 62 63  2  0  0  0  0
 63 64  1  0  0  0  0
 63 66  1  0  0  0  0
 64 65  1  0  0  0  0
 66 67  2  0  0  0  0
 68 69  1  0  0  0  0
 69 70  2  0  0  0  0
 69 71  1  0  0  0  0
 71 72  1  0  0  0  0
 71 75  1  0  0  0  0
 72 73  1  0  0  0  0
 72 74  1  0  0  0  0
 75 76  1  0  0  0  0
 75 77  1  0  0  0  0
 77 78  2  0  0  0  0
 77 79  1  0  0  0  0
 79 80  1  0  0  0  0
 80 81  1  0  0  0  0
 81 82  2  0  0  0  0
 83 84  1  0  0  0  0
 83 85  1  0  0  0  0
M  END
$$$$

 OpenBabel12191814062D

 85 87  0  0  0  0  0  0  0  0999 V2000
   14.3241   -2.5489    0.0000 C   0  0  0  0  0  0  0  0  0  0  0  0
   14.6173   -1.7778    0.0000 C   0  0  0  0  0  0  0  0  0  0  0  0
   14.0962   -1.1383    0.0000 C   0  0  3  0  0  0  0  0  0  0  0  0
   14.3895   -0.3672    0.0000 C   0  0  0  0  0  0  0  0  0  0  0  0
   13.2818   -1.2698    0.0000 C   0  0  3  0  0  0  0  0  0  0  0  0
   12.7606   -0.6303    0.0000 N   0  0  0  0  0  0  0  0  0  0  0  0
   11.9366   -0.5896    0.0000 C   0  0  0  0  0  0  0  0  0  0  0  0
   13.3422   -0.0451    0.0000 C   0  0  0  0  0  0  0  0  0  0  0  0
   14.1659    0.0006    0.0000 O   0  0  0  0  0  0  0  0  0  0  0  0
   13.1262    0.7511    0.0000 C   0  0  3  0  0  0  0  0  0  0  0  0
   13.7078    1.3362    0.0000 C   0  0  3  0  0  0  0  0  0  0  0  0
   13.4918    2.1325    0.0000 C   0  0  0  0  0  0  0  0  0  0  0  0
   14.5053    1.1252    0.0000 C   0  0  0  0  0  0  0  0  0  0  0  0
   14.7213    0.3289    0.0000 C   0  0  0  0  0  0  0  0  0  0  0  0
   12.3287    0.9622    0.0000 N   0  0  0  0  0  0  0  0  0  0  0  0
   11.6381    0.5107    0.0000 C   0  0  0  0  0  0  0  0  0  0  0  0
   12.4552    1.7774    0.0000 C   0  0  0  0  0  0  0  0  0  0  0  0
   13.0948    2.2986    0.0000 O   0  0  0  0  0  0  0  0  0  0  0  0
   11.8125    2.2946    0.0000 C   0  0  3  0  0  0  0  0  0  0  0  0
   11.9391    3.1099    0.0000 C   0  0  0  0  0  0  0  0  0  0  0  0
   12.7083    3.4079    0.0000 C   0  0  0  0  0  0  0  0  0  0  0  0
   12.8349    4.2231    0.0000 O   0  0  0  0  0  0  0  0  0  0  0  0
   13.3511    2.8907    0.0000 N   0  0  0  0  0  0  0  0  0  0  0  0
   14.1204    3.1887    0.0000 C   0  0  0  0  0  0  0  0  0  0  0  0
   14.7631    2.6714    0.0000 C   0  0  0  0  0  0  0  0  0  0  0  0
   15.4058    2.1542    0.0000 C   0  0  0  0  0  0  0  0  0  0  0  0
   15.2803    3.3142    0.0000 C   0  0  0  0  0  0  0  0  0  0  0  0
   14.2459    2.0287    0.0000 C   0  0  0  0  0  0  0  0  0  0  0  0
   11.0432    1.9966    0.0000 N   0  0  0  0  0  0  0  0  0  0  0  0
   10.7499    1.2255    0.0000 C   0  0  0  0  0  0  0  0  0  0  0  0
   10.6664    2.7305    0.0000 C   0  0  0  0  0  0  0  0  0  0  0  0
   11.1136    3.4238    0.0000 O   0  0  0  0  0  0  0  0  0  0  0  0
    9.8424    2.7712    0.0000 C   0  0  3  0  0  0  0  0  0  0  0  0
    9.3952    2.0779    0.0000 N   0  0  0  0  0  0  0  0  0  0  0  0
    8.6590    2.4502    0.0000 C   0  0  0  0  0  0  0  0  0  0  0  0
    8.6133    3.2739    0.0000 O   0  0  0  0  0  0  0  0  0  0  0  0
    7.9685    1.9988    0.0000 C   0  0  3  0  0  0  0  0  0  0  0  0
    7.2322    2.3711    0.0000 C   0  0  0  0  0  0  0  0  0  0  0  0
    6.5417    1.9196    0.0000 C   0  0  0  0  0  0  0  0  0  0  0  0
    7.1865    3.1948    0.0000 C   0  0  0  0  0  0  0  0  0  0  0  0
    8.0142    1.1750    0.0000 N   0  0  0  0  0  0  0  0  0  0  0  0
    8.6569    0.6578    0.0000 C   0  0  0  0  0  0  0  0  0  0  0  0
    7.1997    1.0435    0.0000 C   0  0  0  0  0  0  0  0  0  0  0  0
    6.5064    1.4907    0.0000 O   0  0  0  0  0  0  0  0  0  0  0  0
    6.9064    0.2724    0.0000 C   0  0  3  0  0  0  0  0  0  0  0  0
    6.0920    0.1408    0.0000 C   0  0  0  0  0  0  0  0  0  0  0  0
    5.7987   -0.6303    0.0000 C   0  0  0  0  0  0  0  0  0  0  0  0
    6.3198   -1.2698    0.0000 C   0  0  0  0  0  0  0  0  0  0  0  0
    7.1343   -1.1383    0.0000 C   0  0  0  0  0  0  0  0  0  0  0  0
    7.4276   -0.3672    0.0000 N   0  0  0  0  0  0  0  0  0  0  0  0
    6.8460   -0.9523    0.0000 C   0  0  0  0  0  0  0  0  0  0  0  0
    6.0223   -0.9980    0.0000 O   0  0  0  0  0  0  0  0  0  0  0  0
    7.0620   -1.7486    0.0000 C   0  0  3  0  0  0  0  0  0  0  0  0
    6.4804   -2.3337    0.0000 C   0  0  0  0  0  0  0  0  0  0  0  0
    7.8595   -1.9596    0.0000 O   0  0  0  0  0  0  0  0  0  0  0  0
    7.7329   -2.7749    0.0000 C   0  0  0  0  0  0  0  0  0  0  0  0
    6.9637   -3.0729    0.0000 O   0  0  0  0  0  0  0  0  0  0  0  0
    8.3757   -3.2921    0.0000 C   0  0  3  0  0  0  0  0  0  0  0  0
    8.2491   -4.1073    0.0000 C   0  0  0  0  0  0  0  0  0  0  0  0
    7.4798   -4.4053    0.0000 C   0  0  0  0  0  0  0  0  0  0  0  0
    7.3533   -5.2206    0.0000 C   0  0  0  0  0  0  0  0  0  0  0  0
    6.5840   -5.5186    0.0000 C   0  0  0  0  0  0  0  0  0  0  0  0
    5.9412   -5.0014    0.0000 C   0  0  0  0  0  0  0  0  0  0  0  0
    5.1719   -5.2994    0.0000 O   0  0  0  0  0  0  0  0  0  0  0  0
    5.0454   -6.1146    0.0000 C   0  0  0  0  0  0  0  0  0  0  0  0
    6.0678   -4.1861    0.0000 C   0  0  0  0  0  0  0  0  0  0  0  0
    6.8371   -3.8881    0.0000 C   0  0  0  0  0  0  0  0  0  0  0  0
    9.1450   -2.9941    0.0000 N   0  0  0  0  0  0  0  0  0  0  0  0
    9.5218   -3.7280    0.0000 C   0  0  0  0  0  0  0  0  0  0  0  0
    9.0746   -4.4213    0.0000 O   0  0  0  0  0  0  0  0  0  0  0  0
   10.3458   -3.7687    0.0000 C   0  0  3  0  0  0  0  0  0  0  0  0
   10.7226   -4.5026    0.0000 C   0  0  0  0  0  0  0  0  0  0  0  0
   11.5466   -4.5433    0.0000 C   0  0  0  0  0  0  0  0  0  0  0  0
   10.2754   -5.1959    0.0000 C   0  0  0  0  0  0  0  0  0  0  0  0
   10.7930   -3.0754    0.0000 N   0  0  0  0  0  0  0  0  0  0  0  0
   10.5770   -2.2792    0.0000 C   0  0  0  0  0  0  0  0  0  0  0  0
   11.5292   -3.4477    0.0000 C   0  0  0  0  0  0  0  0  0  0  0  0
   11.8272   -4.2170    0.0000 O   0  0  0  0  0  0  0  0  0  0  0  0
   12.2197   -2.9962    0.0000 C   0  0  0  0  0  0  0  0  0  0  0  0
   12.1740   -2.1725    0.0000 N   0  0  0  0  0  0  0  0  0  0  0  0
   12.9885   -2.0409    0.0000 C   0  0  0  0  0  0  0  0  0  0  0  0
   13.5096   -2.6805    0.0000 O   0  0  0  0  0  0  0  0  0  0  0  0
    9.4656    3.5051    0.0000 C   0  0  0  0  0  0  0  0  0  0  0  0
    8.6945    3.7984    0.0000 C   0  0  0  0  0  0  0  0  0  0  0  0
    9.9128    4.1984    0.0000 C   0  0  0  0  0  0  0  0  0  0  0  0
  1  2  1  0  0  0  0
  2  3  1  0  0  0  0
  3  4  1  0  0  0  0
  3  5  1  0  0  0  0
  5  6  1  0  0  0  0
  5 81  1  0  0  0  0
  6  7  1  0  0  0  0
  6  8  1  0  0  0  0
  8  9  2  0  0  0  0
  8 10  1  0  0  0  0
 10 11  1  0  0  0  0
 10 15  1  0  0  0  0
 11 12  1  0  0  0  0
 11 13  1  0  0  0  0
 13 14  1  0  0  0  0
 15 16  1  0  0  0  0
 15 17  1  0  0  0  0
 17 18  2  0  0  0  0
 17 19  1  0  0  0  0
 19 20  1  0  0  0  0
 19 29  1  0  0  0  0
 20 21  1  0  0  0  0
 21 22  2  0  0  0  0
 21 23  1  0  0  0  0
 23 24  1  0  0  0  0
 24 25  1  0  0  0  0
 25 26  1  0  0  0  0
 25 27  1  0  0  0  0
 25 28  1  0  0  0  0
 29 30  1  0  0  0  0
 29 31  1  0  0  0  0
 31 32  2  0  0  0  0
 31 33  1  0  0  0  0
 33 34  1  0  0  0  0
 33 83  1  0  0  0  0
 34 35  1  0  0  0  0
 35 36  2  0  0  0  0
 35 37  1  0  0  0  0
 37 38  1  0  0  0  0
 37 41  1  0  0  0  0
 38 39  1  0  0  0  0
 38 40  1  0  0  0  0
 41 42  1  0  0  0  0
 41 43  1  0  0  0  0
 43 44  2  0  0  0  0
 43 45  1  0  0  0  0
 45 46  1  0  0  0  0
 45 50  1  0  0  0  0
 46 47  1  0  0  0  0
 47 48  1  0  0  0  0
 48 49  1  0  0  0  0
 49 50  1  0  0  0  0
 50 51  1  0  0  0  0
 51 52  2  0  0  0  0
 51 53  1  0  0  0  0
 53 54  1  0  0  0  0
 53 55  1  0  0  0  0
 55 56  1  0  0  0  0
 56 57  2  0  0  0  0
 56 58  1  0  0  0  0
 58 59  1  0  0  0  0
 58 68  1  0  0  0  0
 59 60  1  0  0  0  0
 60 61  2  0  0  0  0
 60 67  1  0  0  0  0
 61 62  1  0  0  0  0
 62 63  2  0  0  0  0
 63 64  1  0  0  0  0
 63 66  1  0  0  0  0
 64 65  1  0  0  0  0
 66 67  2  0  0  0  0
 68 69  1  0  0  0  0
 69 70  2  0  0  0  0
 69 71  1  0  0  0  0
 71 72  1  0  0  0  0
 71 75  1  0  0  0  0
 72 73  1  0  0  0  0
 72 74  1  0  0  0  0
 75 76  1  0  0  0  0
 75 77  1  0  0  0  0
 77 78  2  0  0  0  0
 77 79  1  0  0  0  0
 79 80  1  0  0  0  0
 80 81  1  0  0  0  0
 81 82  2  0  0  0  0
 83 84  1  0  0  0  0
 83 85  1  0  0  0  0
M  END
$$$$

 OpenBabel12191814062D

 83 85  0  0  0  0  0  0  0  0999 V2000
    3.7531   -7.8132    0.0000 C   0  0  0  0  0  0  0  0  0  0  0  0
    3.9247   -7.0063    0.0000 C   0  0  0  0  0  0  0  0  0  0  0  0
    3.3116   -6.4542    0.0000 C   0  0  3  0  0  0  0  0  0  0  0  0
    3.4831   -5.6473    0.0000 C   0  0  0  0  0  0  0  0  0  0  0  0
    2.5270   -6.7092    0.0000 C   0  0  3  0  0  0  0  0  0  0  0  0
    1.9139   -6.1571    0.0000 N   0  0  0  0  0  0  0  0  0  0  0  0
    1.0934   -6.2434    0.0000 C   0  0  0  0  0  0  0  0  0  0  0  0
    2.3988   -5.4897    0.0000 C   0  0  0  0  0  0  0  0  0  0  0  0
    3.2058   -5.3182    0.0000 O   0  0  0  0  0  0  0  0  0  0  0  0
    2.0632   -4.7360    0.0000 C   0  0  3  0  0  0  0  0  0  0  0  0
    2.5482   -4.0686    0.0000 C   0  0  3  0  0  0  0  0  0  0  0  0
    2.2126   -3.3149    0.0000 C   0  0  0  0  0  0  0  0  0  0  0  0
    3.3686   -4.1548    0.0000 C   0  0  0  0  0  0  0  0  0  0  0  0
    3.7042   -4.9085    0.0000 C   0  0  0  0  0  0  0  0  0  0  0  0
    1.2427   -4.6498    0.0000 N   0  0  0  0  0  0  0  0  0  0  0  0
    0.6297   -5.2018    0.0000 C   0  0  0  0  0  0  0  0  0  0  0  0
    1.2427   -3.8248    0.0000 C   0  0  0  0  0  0  0  0  0  0  0  0
    1.7948   -3.2117    0.0000 O   0  0  0  0  0  0  0  0  0  0  0  0
    0.5283   -3.4123    0.0000 C   0  0  3  0  0  0  0  0  0  0  0  0
    0.5283   -2.5873    0.0000 C   0  0  0  0  0  0  0  0  0  0  0  0
    1.2427   -2.1748    0.0000 C   0  0  0  0  0  0  0  0  0  0  0  0
    1.2427   -1.3498    0.0000 O   0  0  0  0  0  0  0  0  0  0  0  0
    1.9572   -2.5873    0.0000 N   0  0  0  0  0  0  0  0  0  0  0  0
    2.6717   -2.1748    0.0000 C   0  0  0  0  0  0  0  0  0  0  0  0
    3.3862   -2.5873    0.0000 C   0  0  0  0  0  0  0  0  0  0  0  0
    4.1006   -2.1748    0.0000 C   0  0  0  0  0  0  0  0  0  0  0  0
   -0.1862   -3.8248    0.0000 N   0  0  0  0  0  0  0  0  0  0  0  0
   -0.3577   -4.6318    0.0000 C   0  0  0  0  0  0  0  0  0  0  0  0
   -0.6711   -3.1574    0.0000 C   0  0  0  0  0  0  0  0  0  0  0  0
   -0.3356   -2.4037    0.0000 O   0  0  0  0  0  0  0  0  0  0  0  0
   -1.4916   -3.2436    0.0000 C   0  0  3  0  0  0  0  0  0  0  0  0
   -1.8272   -3.9973    0.0000 N   0  0  0  0  0  0  0  0  0  0  0  0
   -2.6118   -3.7423    0.0000 C   0  0  0  0  0  0  0  0  0  0  0  0
   -2.7833   -2.9354    0.0000 O   0  0  0  0  0  0  0  0  0  0  0  0
   -3.2249   -4.2944    0.0000 C   0  0  3  0  0  0  0  0  0  0  0  0
   -4.0095   -4.0394    0.0000 C   0  0  0  0  0  0  0  0  0  0  0  0
   -4.6226   -4.5914    0.0000 C   0  0  0  0  0  0  0  0  0  0  0  0
   -4.1810   -3.2324    0.0000 C   0  0  0  0  0  0  0  0  0  0  0  0
   -3.0533   -5.1013    0.0000 N   0  0  0  0  0  0  0  0  0  0  0  0
   -2.3389   -5.5138    0.0000 C   0  0  0  0  0  0  0  0  0  0  0  0
   -3.8380   -5.3563    0.0000 C   0  0  0  0  0  0  0  0  0  0  0  0
   -4.5916   -5.0207    0.0000 O   0  0  0  0  0  0  0  0  0  0  0  0
   -4.0095   -6.1632    0.0000 C   0  0  3  0  0  0  0  0  0  0  0  0
   -4.7941   -6.4182    0.0000 C   0  0  0  0  0  0  0  0  0  0  0  0
   -4.9656   -7.2251    0.0000 C   0  0  0  0  0  0  0  0  0  0  0  0
   -4.3525   -7.7772    0.0000 C   0  0  0  0  0  0  0  0  0  0  0  0
   -3.5679   -7.5222    0.0000 C   0  0  0  0  0  0  0  0  0  0  0  0
   -3.3964   -6.7153    0.0000 N   0  0  0  0  0  0  0  0  0  0  0  0
   -3.8813   -7.3827    0.0000 C   0  0  0  0  0  0  0  0  0  0  0  0
   -4.6883   -7.5542    0.0000 O   0  0  0  0  0  0  0  0  0  0  0  0
   -3.5458   -8.1364    0.0000 C   0  0  3  0  0  0  0  0  0  0  0  0
   -4.0307   -8.8038    0.0000 C   0  0  0  0  0  0  0  0  0  0  0  0
   -2.7253   -8.2226    0.0000 O   0  0  0  0  0  0  0  0  0  0  0  0
   -2.7253   -9.0476    0.0000 C   0  0  0  0  0  0  0  0  0  0  0  0
   -3.4398   -9.4601    0.0000 O   0  0  0  0  0  0  0  0  0  0  0  0
   -2.0108   -9.4601    0.0000 C   0  0  3  0  0  0  0  0  0  0  0  0
   -2.0108  -10.2851    0.0000 C   0  0  0  0  0  0  0  0  0  0  0  0
   -2.7253  -10.6976    0.0000 C   0  0  0  0  0  0  0  0  0  0  0  0
   -2.7253  -11.5226    0.0000 C   0  0  0  0  0  0  0  0  0  0  0  0
   -3.4398  -11.9351    0.0000 C   0  0  0  0  0  0  0  0  0  0  0  0
   -4.1542  -11.5226    0.0000 C   0  0  0  0  0  0  0  0  0  0  0  0
   -4.8687  -11.9351    0.0000 O   0  0  0  0  0  0  0  0  0  0  0  0
   -4.8687  -12.7601    0.0000 C   0  0  0  0  0  0  0  0  0  0  0  0
   -4.1542  -10.6976    0.0000 C   0  0  0  0  0  0  0  0  0  0  0  0
   -3.4398  -10.2851    0.0000 C   0  0  0  0  0  0  0  0  0  0  0  0
   -1.2963   -9.0476    0.0000 N   0  0  0  0  0  0  0  0  0  0  0  0
   -0.8114   -9.7151    0.0000 C   0  0  0  0  0  0  0  0  0  0  0  0
   -1.1470  -10.4687    0.0000 O   0  0  0  0  0  0  0  0  0  0  0  0
    0.0091   -9.6288    0.0000 C   0  0  3  0  0  0  0  0  0  0  0  0
    0.4940  -10.2963    0.0000 C   0  0  0  0  0  0  0  0  0  0  0  0
    1.3145  -10.2100    0.0000 C   0  0  0  0  0  0  0  0  0  0  0  0
    0.1584  -11.0499    0.0000 C   0  0  0  0  0  0  0  0  0  0  0  0
    0.3446   -8.8751    0.0000 N   0  0  0  0  0  0  0  0  0  0  0  0
    0.0091   -8.1215    0.0000 C   0  0  0  0  0  0  0  0  0  0  0  0
    1.1292   -9.1301    0.0000 C   0  0  0  0  0  0  0  0  0  0  0  0
    1.5417   -9.8446    0.0000 O   0  0  0  0  0  0  0  0  0  0  0  0
    1.7423   -8.5781    0.0000 C   0  0  0  0  0  0  0  0  0  0  0  0
    1.5708   -7.7711    0.0000 N   0  0  0  0  0  0  0  0  0  0  0  0
    2.3554   -7.5161    0.0000 C   0  0  0  0  0  0  0  0  0  0  0  0
    2.9685   -8.0682    0.0000 O   0  0  0  0  0  0  0  0  0  0  0  0
   -1.9765   -2.5761    0.0000 C   0  0  0  0  0  0  0  0  0  0  0  0
   -2.7835   -2.4046    0.0000 C   0  0  0  0  0  0  0  0  0  0  0  0
   -1.6410   -1.8225    0.0000 C   0  0  0  0  0  0  0  0  0  0  0  0
  1  2  1  0  0  0  0
  2  3  1  0  0  0  0
  3  4  1  0  0  0  0
  3  5  1  0  0  0  0
  5  6  1  0  0  0  0
  5 79  1  0  0  0  0
  6  7  1  0  0  0  0
  6  8  1  0  0  0  0
  8  9  2  0  0  0  0
  8 10  1  0  0  0  0
 10 11  1  0  0  0  0
 10 15  1  0  0  0  0
 11 12  1  0  0  0  0
 11 13  1  0  0  0  0
 13 14  1  0  0  0  0
 15 16  1  0  0  0  0
 15 17  1  0  0  0  0
 17 18  2  0  0  0  0
 17 19  1  0  0  0  0
 19 20  1  0  0  0  0
 19 27  1  0  0  0  0
 20 21  1  0  0  0  0
 21 22  2  0  0  0  0
 21 23  1  0  0  0  0
 23 24  1  0  0  0  0
 24 25  1  0  0  0  0
 25 26  2  0  0  0  0
 27 28  1  0  0  0  0
 27 29  1  0  0  0  0
 29 30  2  0  0  0  0
 29 31  1  0  0  0  0
 31 32  1  0  0  0  0
 31 81  1  0  0  0  0
 32 33  1  0  0  0  0
 33 34  2  0  0  0  0
 33 35  1  0  0  0  0
 35 36  1  0  0  0  0
 35 39  1  0  0  0  0
 36 37  1  0  0  0  0
 36 38  1  0  0  0  0
 39 40  1  0  0  0  0
 39 41  1  0  0  0  0
 41 42  2  0  0  0  0
 41 43  1  0  0  0  0
 43 44  1  0  0  0  0
 43 48  1  0  0  0  0
 44 45  1  0  0  0  0
 45 46  1  0  0  0  0
 46 47  1  0  0  0  0
 47 48  1  0  0  0  0
 48 49  1  0  0  0  0
 49 50  2  0  0  0  0
 49 51  1  0  0  0  0
 51 52  1  0  0  0  0
 51 53  1  0  0  0  0
 53 54  1  0  0  0  0
 54 55  2  0  0  0  0
 54 56  1  0  0  0  0
 56 57  1  0  0  0  0
 56 66  1  0  0  0  0
 57 58  1  0  0  0  0
 58 59  2  0  0  0  0
 58 65  1  0  0  0  0
 59 60  1  0  0  0  0
 60 61  2  0  0  0  0
 61 62  1  0  0  0  0
 61 64  1  0  0  0  0
 62 63  1  0  0  0  0
 64 65  2  0  0  0  0
 66 67  1  0  0  0  0
 67 68  2  0  0  0  0
 67 69  1  0  0  0  0
 69 70  1  0  0  0  0
 69 73  1  0  0  0  0
 70 71  1  0  0  0  0
 70 72  1  0  0  0  0
 73 74  1  0  0  0  0
 73 75  1  0  0  0  0
 75 76  2  0  0  0  0
 75 77  1  0  0  0  0
 77 78  1  0  0  0  0
 78 79  1  0  0  0  0
 79 80  2  0  0  0  0
 81 82  1  0  0  0  0
 81 83  1  0  0  0  0
M  END
$$$$

 OpenBabel12191814062D

 85 87  0  0  0  0  0  0  0  0999 V2000
    2.2182   -8.3120    0.0000 C   0  0  0  0  0  0  0  0  0  0  0  0
    2.3897   -7.5050    0.0000 C   0  0  0  0  0  0  0  0  0  0  0  0
    1.7766   -6.9530    0.0000 C   0  0  3  0  0  0  0  0  0  0  0  0
    1.9482   -6.1460    0.0000 C   0  0  0  0  0  0  0  0  0  0  0  0
    0.9920   -7.2079    0.0000 C   0  0  3  0  0  0  0  0  0  0  0  0
    0.3789   -6.6559    0.0000 N   0  0  0  0  0  0  0  0  0  0  0  0
   -0.4416   -6.7421    0.0000 C   0  0  0  0  0  0  0  0  0  0  0  0
    0.8638   -5.9884    0.0000 C   0  0  0  0  0  0  0  0  0  0  0  0
    1.6708   -5.8169    0.0000 O   0  0  0  0  0  0  0  0  0  0  0  0
    0.5283   -5.2348    0.0000 C   0  0  3  0  0  0  0  0  0  0  0  0
    1.0132   -4.5673    0.0000 C   0  0  3  0  0  0  0  0  0  0  0  0
    0.6776   -3.8136    0.0000 C   0  0  0  0  0  0  0  0  0  0  0  0
    1.8337   -4.6536    0.0000 C   0  0  0  0  0  0  0  0  0  0  0  0
    2.1692   -5.4072    0.0000 C   0  0  0  0  0  0  0  0  0  0  0  0
   -0.2922   -5.1485    0.0000 N   0  0  0  0  0  0  0  0  0  0  0  0
   -0.9053   -5.7006    0.0000 C   0  0  0  0  0  0  0  0  0  0  0  0
   -0.2922   -4.3235    0.0000 C   0  0  0  0  0  0  0  0  0  0  0  0
    0.2598   -3.7104    0.0000 O   0  0  0  0  0  0  0  0  0  0  0  0
   -1.0067   -3.9110    0.0000 C   0  0  3  0  0  0  0  0  0  0  0  0
   -1.0067   -3.0860    0.0000 C   0  0  0  0  0  0  0  0  0  0  0  0
   -0.2922   -2.6735    0.0000 C   0  0  0  0  0  0  0  0  0  0  0  0
   -0.2922   -1.8485    0.0000 O   0  0  0  0  0  0  0  0  0  0  0  0
    0.4223   -3.0860    0.0000 N   0  0  0  0  0  0  0  0  0  0  0  0
    1.1367   -2.6735    0.0000 C   0  0  0  0  0  0  0  0  0  0  0  0
    1.8512   -3.0860    0.0000 C   0  0  0  0  0  0  0  0  0  0  0  0
    2.5657   -2.6735    0.0000 C   0  0  0  0  0  0  0  0  0  0  0  0
    3.2802   -3.0860    0.0000 C   0  0  0  0  0  0  0  0  0  0  0  0
    2.5657   -1.8485    0.0000 C   0  0  0  0  0  0  0  0  0  0  0  0
   -1.7211   -4.3235    0.0000 N   0  0  0  0  0  0  0  0  0  0  0  0
   -1.8927   -5.1305    0.0000 C   0  0  0  0  0  0  0  0  0  0  0  0
   -2.2061   -3.6561    0.0000 C   0  0  0  0  0  0  0  0  0  0  0  0
   -1.8705   -2.9024    0.0000 O   0  0  0  0  0  0  0  0  0  0  0  0
   -3.0265   -3.7423    0.0000 C   0  0  3  0  0  0  0  0  0  0  0  0
   -3.3621   -4.4960    0.0000 N   0  0  0  0  0  0  0  0  0  0  0  0
   -4.1467   -4.2411    0.0000 C   0  0  0  0  0  0  0  0  0  0  0  0
   -4.3183   -3.4341    0.0000 O   0  0  0  0  0  0  0  0  0  0  0  0
   -4.7598   -4.7931    0.0000 C   0  0  3  0  0  0  0  0  0  0  0  0
   -5.5444   -4.5382    0.0000 C   0  0  0  0  0  0  0  0  0  0  0  0
   -6.1575   -5.0902    0.0000 C   0  0  0  0  0  0  0  0  0  0  0  0
   -5.7160   -3.7312    0.0000 C   0  0  0  0  0  0  0  0  0  0  0  0
   -4.5883   -5.6001    0.0000 N   0  0  0  0  0  0  0  0  0  0  0  0
   -3.8738   -6.0126    0.0000 C   0  0  0  0  0  0  0  0  0  0  0  0
   -5.3729   -5.8550    0.0000 C   0  0  0  0  0  0  0  0  0  0  0  0
   -6.1266   -5.5194    0.0000 O   0  0  0  0  0  0  0  0  0  0  0  0
   -5.5444   -6.6620    0.0000 C   0  0  3  0  0  0  0  0  0  0  0  0
   -6.3291   -6.9169    0.0000 C   0  0  0  0  0  0  0  0  0  0  0  0
   -6.5006   -7.7239    0.0000 C   0  0  0  0  0  0  0  0  0  0  0  0
   -5.8875   -8.2759    0.0000 C   0  0  0  0  0  0  0  0  0  0  0  0
   -5.1029   -8.0210    0.0000 C   0  0  0  0  0  0  0  0  0  0  0  0
   -4.9313   -7.2140    0.0000 N   0  0  0  0  0  0  0  0  0  0  0  0
   -5.4163   -7.8814    0.0000 C   0  0  0  0  0  0  0  0  0  0  0  0
   -6.2232   -8.0530    0.0000 O   0  0  0  0  0  0  0  0  0  0  0  0
   -5.0807   -8.6351    0.0000 C   0  0  3  0  0  0  0  0  0  0  0  0
   -5.5656   -9.3026    0.0000 C   0  0  0  0  0  0  0  0  0  0  0  0
   -4.2602   -8.7214    0.0000 O   0  0  0  0  0  0  0  0  0  0  0  0
   -4.2602   -9.5464    0.0000 C   0  0  0  0  0  0  0  0  0  0  0  0
   -4.9747   -9.9589    0.0000 O   0  0  0  0  0  0  0  0  0  0  0  0
   -3.5458   -9.9589    0.0000 C   0  0  3  0  0  0  0  0  0  0  0  0
   -3.5458  -10.7839    0.0000 C   0  0  0  0  0  0  0  0  0  0  0  0
   -4.2602  -11.1964    0.0000 C   0  0  0  0  0  0  0  0  0  0  0  0
   -4.2602  -12.0214    0.0000 C   0  0  0  0  0  0  0  0  0  0  0  0
   -4.9747  -12.4339    0.0000 C   0  0  0  0  0  0  0  0  0  0  0  0
   -5.6892  -12.0214    0.0000 C   0  0  0  0  0  0  0  0  0  0  0  0
   -6.4036  -12.4339    0.0000 O   0  0  0  0  0  0  0  0  0  0  0  0
   -6.4036  -13.2589    0.0000 C   0  0  0  0  0  0  0  0  0  0  0  0
   -5.6892  -11.1964    0.0000 C   0  0  0  0  0  0  0  0  0  0  0  0
   -4.9747  -10.7839    0.0000 C   0  0  0  0  0  0  0  0  0  0  0  0
   -2.8313   -9.5464    0.0000 N   0  0  0  0  0  0  0  0  0  0  0  0
   -2.3464  -10.2138    0.0000 C   0  0  0  0  0  0  0  0  0  0  0  0
   -2.6819  -10.9675    0.0000 O   0  0  0  0  0  0  0  0  0  0  0  0
   -1.5259  -10.1276    0.0000 C   0  0  3  0  0  0  0  0  0  0  0  0
   -1.0410  -10.7950    0.0000 C   0  0  0  0  0  0  0  0  0  0  0  0
   -0.2205  -10.7088    0.0000 C   0  0  0  0  0  0  0  0  0  0  0  0
   -1.3765  -11.5487    0.0000 C   0  0  0  0  0  0  0  0  0  0  0  0
   -1.1903   -9.3739    0.0000 N   0  0  0  0  0  0  0  0  0  0  0  0
   -1.5259   -8.6202    0.0000 C   0  0  0  0  0  0  0  0  0  0  0  0
   -0.4057   -9.6288    0.0000 C   0  0  0  0  0  0  0  0  0  0  0  0
    0.0068  -10.3433    0.0000 O   0  0  0  0  0  0  0  0  0  0  0  0
    0.2074   -9.0768    0.0000 C   0  0  0  0  0  0  0  0  0  0  0  0
    0.0359   -8.2698    0.0000 N   0  0  0  0  0  0  0  0  0  0  0  0
    0.8205   -8.0149    0.0000 C   0  0  0  0  0  0  0  0  0  0  0  0
    1.4336   -8.5669    0.0000 O   0  0  0  0  0  0  0  0  0  0  0  0
   -3.5115   -3.0749    0.0000 C   0  0  0  0  0  0  0  0  0  0  0  0
   -4.3184   -2.9034    0.0000 C   0  0  0  0  0  0  0  0  0  0  0  0
   -3.1759   -2.3212    0.0000 C   0  0  0  0  0  0  0  0  0  0  0  0
  1  2  1  0  0  0  0
  2  3  1  0  0  0  0
  3  4  1  0  0  0  0
  3  5  1  0  0  0  0
  5  6  1  0  0  0  0
  5 81  1  0  0  0  0
  6  7  1  0  0  0  0
  6  8  1  0  0  0  0
  8  9  2  0  0  0  0
  8 10  1  0  0  0  0
 10 11  1  0  0  0  0
 10 15  1  0  0  0  0
 11 12  1  0  0  0  0
 11 13  1  0  0  0  0
 13 14  1  0  0  0  0
 15 16  1  0  0  0  0
 15 17  1  0  0  0  0
 17 18  2  0  0  0  0
 17 19  1  0  0  0  0
 19 20  1  0  0  0  0
 19 29  1  0  0  0  0
 20 21  1  0  0  0  0
 21 22  2  0  0  0  0
 21 23  1  0  0  0  0
 23 24  1  0  0  0  0
 24 25  1  0  0  0  0
 25 26  1  0  0  0  0
 26 27  1  0  0  0  0
 26 28  1  0  0  0  0
 29 30  1  0  0  0  0
 29 31  1  0  0  0  0
 31 32  2  0  0  0  0
 31 33  1  0  0  0  0
 33 34  1  0  0  0  0
 33 83  1  0  0  0  0
 34 35  1  0  0  0  0
 35 36  2  0  0  0  0
 35 37  1  0  0  0  0
 37 38  1  0  0  0  0
 37 41  1  0  0  0  0
 38 39  1  0  0  0  0
 38 40  1  0  0  0  0
 41 42  1  0  0  0  0
 41 43  1  0  0  0  0
 43 44  2  0  0  0  0
 43 45  1  0  0  0  0
 45 46  1  0  0  0  0
 45 50  1  0  0  0  0
 46 47  1  0  0  0  0
 47 48  1  0  0  0  0
 48 49  1  0  0  0  0
 49 50  1  0  0  0  0
 50 51  1  0  0  0  0
 51 52  2  0  0  0  0
 51 53  1  0  0  0  0
 53 54  1  0  0  0  0
 53 55  1  0  0  0  0
 55 56  1  0  0  0  0
 56 57  2  0  0  0  0
 56 58  1  0  0  0  0
 58 59  1  0  0  0  0
 58 68  1  0  0  0  0
 59 60  1  0  0  0  0
 60 61  2  0  0  0  0
 60 67  1  0  0  0  0
 61 62  1  0  0  0  0
 62 63  2  0  0  0  0
 63 64  1  0  0  0  0
 63 66  1  0  0  0  0
 64 65  1  0  0  0  0
 66 67  2  0  0  0  0
 68 69  1  0  0  0  0
 69 70  2  0  0  0  0
 69 71  1  0  0  0  0
 71 72  1  0  0  0  0
 71 75  1  0  0  0  0
 72 73  1  0  0  0  0
 72 74  1  0  0  0  0
 75 76  1  0  0  0  0
 75 77  1  0  0  0  0
 77 78  2  0  0  0  0
 77 79  1  0  0  0  0
 79 80  1  0  0  0  0
 80 81  1  0  0  0  0
 81 82  2  0  0  0  0
 83 84  1  0  0  0  0
 83 85  1  0  0  0  0
M  END
$$$$

 OpenBabel12191814062D

 84 86  0  0  0  0  0  0  0  0999 V2000
   14.3241   -2.5489    0.0000 C   0  0  0  0  0  0  0  0  0  0  0  0
   14.6173   -1.7778    0.0000 C   0  0  0  0  0  0  0  0  0  0  0  0
   14.0962   -1.1383    0.0000 C   0  0  3  0  0  0  0  0  0  0  0  0
   14.3895   -0.3672    0.0000 C   0  0  0  0  0  0  0  0  0  0  0  0
   13.2818   -1.2698    0.0000 C   0  0  3  0  0  0  0  0  0  0  0  0
   12.7606   -0.6303    0.0000 N   0  0  0  0  0  0  0  0  0  0  0  0
   11.9366   -0.5896    0.0000 C   0  0  0  0  0  0  0  0  0  0  0  0
   13.3422   -0.0451    0.0000 C   0  0  0  0  0  0  0  0  0  0  0  0
   14.1659    0.0006    0.0000 O   0  0  0  0  0  0  0  0  0  0  0  0
   13.1262    0.7511    0.0000 C   0  0  3  0  0  0  0  0  0  0  0  0
   13.7078    1.3362    0.0000 C   0  0  3  0  0  0  0  0  0  0  0  0
   13.4918    2.1325    0.0000 C   0  0  0  0  0  0  0  0  0  0  0  0
   14.5053    1.1252    0.0000 C   0  0  0  0  0  0  0  0  0  0  0  0
   14.7213    0.3289    0.0000 C   0  0  0  0  0  0  0  0  0  0  0  0
   12.3287    0.9622    0.0000 N   0  0  0  0  0  0  0  0  0  0  0  0
   11.6381    0.5107    0.0000 C   0  0  0  0  0  0  0  0  0  0  0  0
   12.4552    1.7774    0.0000 C   0  0  0  0  0  0  0  0  0  0  0  0
   13.0948    2.2986    0.0000 O   0  0  0  0  0  0  0  0  0  0  0  0
   11.8125    2.2946    0.0000 C   0  0  3  0  0  0  0  0  0  0  0  0
   11.9391    3.1099    0.0000 C   0  0  0  0  0  0  0  0  0  0  0  0
   12.7083    3.4079    0.0000 C   0  0  0  0  0  0  0  0  0  0  0  0
   12.8349    4.2231    0.0000 O   0  0  0  0  0  0  0  0  0  0  0  0
   13.3511    2.8907    0.0000 O   0  0  0  0  0  0  0  0  0  0  0  0
   14.1204    3.1887    0.0000 C   0  0  0  0  0  0  0  0  0  0  0  0
   14.8897    3.4867    0.0000 C   0  0  0  0  0  0  0  0  0  0  0  0
   13.8224    3.9580    0.0000 C   0  0  0  0  0  0  0  0  0  0  0  0
   14.4184    2.4194    0.0000 C   0  0  0  0  0  0  0  0  0  0  0  0
   11.0432    1.9966    0.0000 N   0  0  0  0  0  0  0  0  0  0  0  0
   10.7499    1.2255    0.0000 C   0  0  0  0  0  0  0  0  0  0  0  0
   10.6664    2.7305    0.0000 C   0  0  0  0  0  0  0  0  0  0  0  0
   11.1136    3.4238    0.0000 O   0  0  0  0  0  0  0  0  0  0  0  0
    9.8424    2.7712    0.0000 C   0  0  3  0  0  0  0  0  0  0  0  0
    9.3952    2.0779    0.0000 N   0  0  0  0  0  0  0  0  0  0  0  0
    8.6590    2.4502    0.0000 C   0  0  0  0  0  0  0  0  0  0  0  0
    8.6133    3.2739    0.0000 O   0  0  0  0  0  0  0  0  0  0  0  0
    7.9685    1.9988    0.0000 C   0  0  3  0  0  0  0  0  0  0  0  0
    7.2322    2.3711    0.0000 C   0  0  0  0  0  0  0  0  0  0  0  0
    6.5417    1.9196    0.0000 C   0  0  0  0  0  0  0  0  0  0  0  0
    7.1865    3.1948    0.0000 C   0  0  0  0  0  0  0  0  0  0  0  0
    8.0142    1.1750    0.0000 N   0  0  0  0  0  0  0  0  0  0  0  0
    8.6569    0.6578    0.0000 C   0  0  0  0  0  0  0  0  0  0  0  0
    7.1997    1.0435    0.0000 C   0  0  0  0  0  0  0  0  0  0  0  0
    6.5064    1.4907    0.0000 O   0  0  0  0  0  0  0  0  0  0  0  0
    6.9064    0.2724    0.0000 C   0  0  3  0  0  0  0  0  0  0  0  0
    6.0920    0.1408    0.0000 C   0  0  0  0  0  0  0  0  0  0  0  0
    5.7987   -0.6303    0.0000 C   0  0  0  0  0  0  0  0  0  0  0  0
    6.3198   -1.2698    0.0000 C   0  0  0  0  0  0  0  0  0  0  0  0
    7.1343   -1.1383    0.0000 C   0  0  0  0  0  0  0  0  0  0  0  0
    7.4276   -0.3672    0.0000 N   0  0  0  0  0  0  0  0  0  0  0  0
    6.8460   -0.9523    0.0000 C   0  0  0  0  0  0  0  0  0  0  0  0
    6.0223   -0.9980    0.0000 O   0  0  0  0  0  0  0  0  0  0  0  0
    7.0620   -1.7486    0.0000 C   0  0  3  0  0  0  0  0  0  0  0  0
    6.4804   -2.3337    0.0000 C   0  0  0  0  0  0  0  0  0  0  0  0
    7.8595   -1.9596    0.0000 N   0  0  0  0  0  0  0  0  0  0  0  0
    7.7329   -2.7749    0.0000 C   0  0  0  0  0  0  0  0  0  0  0  0
    6.9637   -3.0729    0.0000 O   0  0  0  0  0  0  0  0  0  0  0  0
    8.3757   -3.2921    0.0000 C   0  0  3  0  0  0  0  0  0  0  0  0
    8.2491   -4.1073    0.0000 C   0  0  0  0  0  0  0  0  0  0  0  0
    7.4798   -4.4053    0.0000 C   0  0  0  0  0  0  0  0  0  0  0  0
    7.3533   -5.2206    0.0000 C   0  0  0  0  0  0  0  0  0  0  0  0
    6.5840   -5.5186    0.0000 C   0  0  0  0  0  0  0  0  0  0  0  0
    5.9412   -5.0014    0.0000 C   0  0  0  0  0  0  0  0  0  0  0  0
    5.1719   -5.2994    0.0000 O   0  0  0  0  0  0  0  0  0  0  0  0
    5.0454   -6.1146    0.0000 C   0  0  0  0  0  0  0  0  0  0  0  0
    6.0678   -4.1861    0.0000 C   0  0  0  0  0  0  0  0  0  0  0  0
    6.8371   -3.8881    0.0000 C   0  0  0  0  0  0  0  0  0  0  0  0
    9.1450   -2.9941    0.0000 N   0  0  0  0  0  0  0  0  0  0  0  0
    9.5218   -3.7280    0.0000 C   0  0  0  0  0  0  0  0  0  0  0  0
    9.0746   -4.4213    0.0000 O   0  0  0  0  0  0  0  0  0  0  0  0
   10.3458   -3.7687    0.0000 C   0  0  3  0  0  0  0  0  0  0  0  0
   10.7226   -4.5026    0.0000 C   0  0  0  0  0  0  0  0  0  0  0  0
   11.5466   -4.5433    0.0000 C   0  0  0  0  0  0  0  0  0  0  0  0
   10.2754   -5.1959    0.0000 C   0  0  0  0  0  0  0  0  0  0  0  0
   10.7930   -3.0754    0.0000 N   0  0  0  0  0  0  0  0  0  0  0  0
   10.5770   -2.2792    0.0000 C   0  0  0  0  0  0  0  0  0  0  0  0
   11.5292   -3.4477    0.0000 C   0  0  0  0  0  0  0  0  0  0  0  0
   11.8272   -4.2170    0.0000 O   0  0  0  0  0  0  0  0  0  0  0  0
   12.2197   -2.9962    0.0000 C   0  0  0  0  0  0  0  0  0  0  0  0
   12.1740   -2.1725    0.0000 N   0  0  0  0  0  0  0  0  0  0  0  0
   12.9885   -2.0409    0.0000 C   0  0  0  0  0  0  0  0  0  0  0  0
   13.5096   -2.6805    0.0000 O   0  0  0  0  0  0  0  0  0  0  0  0
    9.4656    3.5051    0.0000 C   0  0  0  0  0  0  0  0  0  0  0  0
    8.6945    3.7984    0.0000 C   0  0  0  0  0  0  0  0  0  0  0  0
    9.9128    4.1984    0.0000 C   0  0  0  0  0  0  0  0  0  0  0  0
  1  2  1  0  0  0  0
  2  3  1  0  0  0  0
  3  4  1  0  0  0  0
  3  5  1  0  0  0  0
  5  6  1  0  0  0  0
  5 80  1  0  0  0  0
  6  7  1  0  0  0  0
  6  8  1  0  0  0  0
  8  9  2  0  0  0  0
  8 10  1  0  0  0  0
 10 11  1  0  0  0  0
 10 15  1  0  0  0  0
 11 12  1  0  0  0  0
 11 13  1  0  0  0  0
 13 14  1  0  0  0  0
 15 16  1  0  0  0  0
 15 17  1  0  0  0  0
 17 18  2  0  0  0  0
 17 19  1  0  0  0  0
 19 20  1  0  0  0  0
 19 28  1  0  0  0  0
 20 21  1  0  0  0  0
 21 22  2  0  0  0  0
 21 23  1  0  0  0  0
 23 24  1  0  0  0  0
 24 25  1  0  0  0  0
 24 26  1  0  0  0  0
 24 27  1  0  0  0  0
 28 29  1  0  0  0  0
 28 30  1  0  0  0  0
 30 31  2  0  0  0  0
 30 32  1  0  0  0  0
 32 33  1  0  0  0  0
 32 82  1  0  0  0  0
 33 34  1  0  0  0  0
 34 35  2  0  0  0  0
 34 36  1  0  0  0  0
 36 37  1  0  0  0  0
 36 40  1  0  0  0  0
 37 38  1  0  0  0  0
 37 39  1  0  0  0  0
 40 41  1  0  0  0  0
 40 42  1  0  0  0  0
 42 43  2  0  0  0  0
 42 44  1  0  0  0  0
 44 45  1  0  0  0  0
 44 49  1  0  0  0  0
 45 46  1  0  0  0  0
 46 47  1  0  0  0  0
 47 48  1  0  0  0  0
 48 49  1  0  0  0  0
 49 50  1  0  0  0  0
 50 51  2  0  0  0  0
 50 52  1  0  0  0  0
 52 53  1  0  0  0  0
 52 54  1  0  0  0  0
 54 55  1  0  0  0  0
 55 56  2  0  0  0  0
 55 57  1  0  0  0  0
 57 58  1  0  0  0  0
 57 67  1  0  0  0  0
 58 59  1  0  0  0  0
 59 60  2  0  0  0  0
 59 66  1  0  0  0  0
 60 61  1  0  0  0  0
 61 62  2  0  0  0  0
 62 63  1  0  0  0  0
 62 65  1  0  0  0  0
 63 64  1  0  0  0  0
 65 66  2  0  0  0  0
 67 68  1  0  0  0  0
 68 69  2  0  0  0  0
 68 70  1  0  0  0  0
 70 71  1  0  0  0  0
 70 74  1  0  0  0  0
 71 72  1  0  0  0  0
 71 73  1  0  0  0  0
 74 75  1  0  0  0  0
 74 76  1  0  0  0  0
 76 77  2  0  0  0  0
 76 78  1  0  0  0  0
 78 79  1  0  0  0  0
 79 80  1  0  0  0  0
 80 81  2  0  0  0  0
 82 83  1  0  0  0  0
 82 84  1  0  0  0  0
M  END
$$$$

 OpenBabel12191814062D

 83 85  0  0  0  0  0  0  0  0999 V2000
   14.3241   -2.5489    0.0000 C   0  0  0  0  0  0  0  0  0  0  0  0
   14.6173   -1.7778    0.0000 C   0  0  0  0  0  0  0  0  0  0  0  0
   14.0962   -1.1383    0.0000 C   0  0  3  0  0  0  0  0  0  0  0  0
   14.3895   -0.3672    0.0000 C   0  0  0  0  0  0  0  0  0  0  0  0
   13.2818   -1.2698    0.0000 C   0  0  3  0  0  0  0  0  0  0  0  0
   12.7606   -0.6303    0.0000 N   0  0  0  0  0  0  0  0  0  0  0  0
   11.9366   -0.5896    0.0000 C   0  0  0  0  0  0  0  0  0  0  0  0
   13.3422   -0.0451    0.0000 C   0  0  0  0  0  0  0  0  0  0  0  0
   14.1659    0.0006    0.0000 O   0  0  0  0  0  0  0  0  0  0  0  0
   13.1262    0.7511    0.0000 C   0  0  3  0  0  0  0  0  0  0  0  0
   13.7078    1.3362    0.0000 C   0  0  3  0  0  0  0  0  0  0  0  0
   13.4918    2.1325    0.0000 C   0  0  0  0  0  0  0  0  0  0  0  0
   14.5053    1.1252    0.0000 C   0  0  0  0  0  0  0  0  0  0  0  0
   14.7213    0.3289    0.0000 C   0  0  0  0  0  0  0  0  0  0  0  0
   12.3287    0.9622    0.0000 N   0  0  0  0  0  0  0  0  0  0  0  0
   11.6381    0.5107    0.0000 C   0  0  0  0  0  0  0  0  0  0  0  0
   12.4552    1.7774    0.0000 C   0  0  0  0  0  0  0  0  0  0  0  0
   13.0948    2.2986    0.0000 O   0  0  0  0  0  0  0  0  0  0  0  0
   11.8125    2.2946    0.0000 C   0  0  3  0  0  0  0  0  0  0  0  0
   11.9391    3.1099    0.0000 C   0  0  0  0  0  0  0  0  0  0  0  0
   12.7083    3.4079    0.0000 C   0  0  0  0  0  0  0  0  0  0  0  0
   12.8349    4.2231    0.0000 O   0  0  0  0  0  0  0  0  0  0  0  0
   13.3511    2.8907    0.0000 O   0  0  0  0  0  0  0  0  0  0  0  0
   14.1204    3.1887    0.0000 C   0  0  0  0  0  0  0  0  0  0  0  0
   14.8897    3.4867    0.0000 C   0  0  0  0  0  0  0  0  0  0  0  0
   13.8224    3.9580    0.0000 C   0  0  0  0  0  0  0  0  0  0  0  0
   14.4184    2.4194    0.0000 C   0  0  0  0  0  0  0  0  0  0  0  0
   11.0432    1.9966    0.0000 N   0  0  0  0  0  0  0  0  0  0  0  0
   10.7499    1.2255    0.0000 C   0  0  0  0  0  0  0  0  0  0  0  0
   10.6664    2.7305    0.0000 C   0  0  0  0  0  0  0  0  0  0  0  0
   11.1136    3.4238    0.0000 O   0  0  0  0  0  0  0  0  0  0  0  0
    9.8424    2.7712    0.0000 C   0  0  3  0  0  0  0  0  0  0  0  0
    9.3952    2.0779    0.0000 N   0  0  0  0  0  0  0  0  0  0  0  0
    8.6590    2.4502    0.0000 C   0  0  0  0  0  0  0  0  0  0  0  0
    8.6133    3.2739    0.0000 O   0  0  0  0  0  0  0  0  0  0  0  0
    7.9685    1.9988    0.0000 C   0  0  3  0  0  0  0  0  0  0  0  0
    7.2322    2.3711    0.0000 C   0  0  0  0  0  0  0  0  0  0  0  0
    6.5417    1.9196    0.0000 C   0  0  0  0  0  0  0  0  0  0  0  0
    7.1865    3.1948    0.0000 C   0  0  0  0  0  0  0  0  0  0  0  0
    8.0142    1.1750    0.0000 N   0  0  0  0  0  0  0  0  0  0  0  0
    8.6569    0.6578    0.0000 C   0  0  0  0  0  0  0  0  0  0  0  0
    7.1997    1.0435    0.0000 C   0  0  0  0  0  0  0  0  0  0  0  0
    6.5064    1.4907    0.0000 O   0  0  0  0  0  0  0  0  0  0  0  0
    6.9064    0.2724    0.0000 C   0  0  3  0  0  0  0  0  0  0  0  0
    6.0920    0.1408    0.0000 C   0  0  0  0  0  0  0  0  0  0  0  0
    5.7987   -0.6303    0.0000 C   0  0  0  0  0  0  0  0  0  0  0  0
    6.3198   -1.2698    0.0000 C   0  0  0  0  0  0  0  0  0  0  0  0
    7.1343   -1.1383    0.0000 C   0  0  0  0  0  0  0  0  0  0  0  0
    7.4276   -0.3672    0.0000 N   0  0  0  0  0  0  0  0  0  0  0  0
    6.8460   -0.9523    0.0000 C   0  0  0  0  0  0  0  0  0  0  0  0
    6.0223   -0.9980    0.0000 O   0  0  0  0  0  0  0  0  0  0  0  0
    7.0620   -1.7486    0.0000 C   0  0  3  0  0  0  0  0  0  0  0  0
    6.4804   -2.3337    0.0000 C   0  0  0  0  0  0  0  0  0  0  0  0
    7.8595   -1.9596    0.0000 O   0  0  0  0  0  0  0  0  0  0  0  0
    7.7329   -2.7749    0.0000 C   0  0  0  0  0  0  0  0  0  0  0  0
    6.9637   -3.0729    0.0000 O   0  0  0  0  0  0  0  0  0  0  0  0
    8.3757   -3.2921    0.0000 C   0  0  3  0  0  0  0  0  0  0  0  0
    8.2491   -4.1073    0.0000 C   0  0  0  0  0  0  0  0  0  0  0  0
    7.4798   -4.4053    0.0000 C   0  0  0  0  0  0  0  0  0  0  0  0
    7.3533   -5.2206    0.0000 C   0  0  0  0  0  0  0  0  0  0  0  0
    6.5840   -5.5186    0.0000 C   0  0  0  0  0  0  0  0  0  0  0  0
    5.9412   -5.0014    0.0000 C   0  0  0  0  0  0  0  0  0  0  0  0
    5.1719   -5.2994    0.0000 O   0  0  0  0  0  0  0  0  0  0  0  0
    6.0678   -4.1861    0.0000 C   0  0  0  0  0  0  0  0  0  0  0  0
    6.8371   -3.8881    0.0000 C   0  0  0  0  0  0  0  0  0  0  0  0
    9.1450   -2.9941    0.0000 N   0  0  0  0  0  0  0  0  0  0  0  0
    9.5218   -3.7280    0.0000 C   0  0  0  0  0  0  0  0  0  0  0  0
    9.0746   -4.4213    0.0000 O   0  0  0  0  0  0  0  0  0  0  0  0
   10.3458   -3.7687    0.0000 C   0  0  3  0  0  0  0  0  0  0  0  0
   10.7226   -4.5026    0.0000 C   0  0  0  0  0  0  0  0  0  0  0  0
   11.5466   -4.5433    0.0000 C   0  0  0  0  0  0  0  0  0  0  0  0
   10.2754   -5.1959    0.0000 C   0  0  0  0  0  0  0  0  0  0  0  0
   10.7930   -3.0754    0.0000 N   0  0  0  0  0  0  0  0  0  0  0  0
   10.5770   -2.2792    0.0000 C   0  0  0  0  0  0  0  0  0  0  0  0
   11.5292   -3.4477    0.0000 C   0  0  0  0  0  0  0  0  0  0  0  0
   11.8272   -4.2170    0.0000 O   0  0  0  0  0  0  0  0  0  0  0  0
   12.2197   -2.9962    0.0000 C   0  0  0  0  0  0  0  0  0  0  0  0
   12.1740   -2.1725    0.0000 N   0  0  0  0  0  0  0  0  0  0  0  0
   12.9885   -2.0409    0.0000 C   0  0  0  0  0  0  0  0  0  0  0  0
   13.5096   -2.6805    0.0000 O   0  0  0  0  0  0  0  0  0  0  0  0
    9.4656    3.5051    0.0000 C   0  0  0  0  0  0  0  0  0  0  0  0
    8.6945    3.7984    0.0000 C   0  0  0  0  0  0  0  0  0  0  0  0
    9.9128    4.1984    0.0000 C   0  0  0  0  0  0  0  0  0  0  0  0
  1  2  1  0  0  0  0
  2  3  1  0  0  0  0
  3  4  1  0  0  0  0
  3  5  1  0  0  0  0
  5  6  1  0  0  0  0
  5 79  1  0  0  0  0
  6  7  1  0  0  0  0
  6  8  1  0  0  0  0
  8  9  2  0  0  0  0
  8 10  1  0  0  0  0
 10 11  1  0  0  0  0
 10 15  1  0  0  0  0
 11 12  1  0  0  0  0
 11 13  1  0  0  0  0
 13 14  1  0  0  0  0
 15 16  1  0  0  0  0
 15 17  1  0  0  0  0
 17 18  2  0  0  0  0
 17 19  1  0  0  0  0
 19 20  1  0  0  0  0
 19 28  1  0  0  0  0
 20 21  1  0  0  0  0
 21 22  2  0  0  0  0
 21 23  1  0  0  0  0
 23 24  1  0  0  0  0
 24 25  1  0  0  0  0
 24 26  1  0  0  0  0
 24 27  1  0  0  0  0
 28 29  1  0  0  0  0
 28 30  1  0  0  0  0
 30 31  2  0  0  0  0
 30 32  1  0  0  0  0
 32 33  1  0  0  0  0
 32 81  1  0  0  0  0
 33 34  1  0  0  0  0
 34 35  2  0  0  0  0
 34 36  1  0  0  0  0
 36 37  1  0  0  0  0
 36 40  1  0  0  0  0
 37 38  1  0  0  0  0
 37 39  1  0  0  0  0
 40 41  1  0  0  0  0
 40 42  1  0  0  0  0
 42 43  2  0  0  0  0
 42 44  1  0  0  0  0
 44 45  1  0  0  0  0
 44 49  1  0  0  0  0
 45 46  1  0  0  0  0
 46 47  1  0  0  0  0
 47 48  1  0  0  0  0
 48 49  1  0  0  0  0
 49 50  1  0  0  0  0
 50 51  2  0  0  0  0
 50 52  1  0  0  0  0
 52 53  1  0  0  0  0
 52 54  1  0  0  0  0
 54 55  1  0  0  0  0
 55 56  2  0  0  0  0
 55 57  1  0  0  0  0
 57 58  1  0  0  0  0
 57 66  1  0  0  0  0
 58 59  1  0  0  0  0
 59 60  2  0  0  0  0
 59 65  1  0  0  0  0
 60 61  1  0  0  0  0
 61 62  2  0  0  0  0
 62 63  1  0  0  0  0
 62 64  1  0  0  0  0
 64 65  2  0  0  0  0
 66 67  1  0  0  0  0
 67 68  2  0  0  0  0
 67 69  1  0  0  0  0
 69 70  1  0  0  0  0
 69 73  1  0  0  0  0
 70 71  1  0  0  0  0
 70 72  1  0  0  0  0
 73 74  1  0  0  0  0
 73 75  1  0  0  0  0
 75 76  2  0  0  0  0
 75 77  1  0  0  0  0
 77 78  1  0  0  0  0
 78 79  1  0  0  0  0
 79 80  2  0  0  0  0
 81 82  1  0  0  0  0
 81 83  1  0  0  0  0
M  END
$$$$

 OpenBabel12191814062D

 87 89  0  0  0  0  0  0  0  0999 V2000
   14.3241   -2.5489    0.0000 C   0  0  0  0  0  0  0  0  0  0  0  0
   14.6173   -1.7778    0.0000 C   0  0  0  0  0  0  0  0  0  0  0  0
   14.0962   -1.1383    0.0000 C   0  0  3  0  0  0  0  0  0  0  0  0
   14.3895   -0.3672    0.0000 C   0  0  0  0  0  0  0  0  0  0  0  0
   13.2818   -1.2698    0.0000 C   0  0  3  0  0  0  0  0  0  0  0  0
   12.7606   -0.6303    0.0000 N   0  0  0  0  0  0  0  0  0  0  0  0
   11.9366   -0.5896    0.0000 C   0  0  0  0  0  0  0  0  0  0  0  0
   13.3422   -0.0451    0.0000 C   0  0  0  0  0  0  0  0  0  0  0  0
   14.1659    0.0006    0.0000 O   0  0  0  0  0  0  0  0  0  0  0  0
   13.1262    0.7511    0.0000 C   0  0  3  0  0  0  0  0  0  0  0  0
   13.7078    1.3362    0.0000 C   0  0  3  0  0  0  0  0  0  0  0  0
   13.4918    2.1325    0.0000 C   0  0  0  0  0  0  0  0  0  0  0  0
   14.5053    1.1252    0.0000 C   0  0  0  0  0  0  0  0  0  0  0  0
   14.7213    0.3289    0.0000 C   0  0  0  0  0  0  0  0  0  0  0  0
   12.3287    0.9622    0.0000 N   0  0  0  0  0  0  0  0  0  0  0  0
   11.6381    0.5107    0.0000 C   0  0  0  0  0  0  0  0  0  0  0  0
   12.4552    1.7774    0.0000 C   0  0  0  0  0  0  0  0  0  0  0  0
   13.0948    2.2986    0.0000 O   0  0  0  0  0  0  0  0  0  0  0  0
   11.8125    2.2946    0.0000 C   0  0  3  0  0  0  0  0  0  0  0  0
   11.9391    3.1099    0.0000 C   0  0  0  0  0  0  0  0  0  0  0  0
   12.7083    3.4079    0.0000 C   0  0  0  0  0  0  0  0  0  0  0  0
   12.8349    4.2231    0.0000 O   0  0  0  0  0  0  0  0  0  0  0  0
   13.3511    2.8907    0.0000 O   0  0  0  0  0  0  0  0  0  0  0  0
   14.1204    3.1887    0.0000 C   0  0  0  0  0  0  0  0  0  0  0  0
   14.8897    3.4867    0.0000 C   0  0  0  0  0  0  0  0  0  0  0  0
   13.8224    3.9580    0.0000 C   0  0  0  0  0  0  0  0  0  0  0  0
   14.4184    2.4194    0.0000 C   0  0  0  0  0  0  0  0  0  0  0  0
   11.0432    1.9966    0.0000 N   0  0  0  0  0  0  0  0  0  0  0  0
   10.7499    1.2255    0.0000 C   0  0  0  0  0  0  0  0  0  0  0  0
   10.6664    2.7305    0.0000 C   0  0  0  0  0  0  0  0  0  0  0  0
   11.1136    3.4238    0.0000 O   0  0  0  0  0  0  0  0  0  0  0  0
    9.8424    2.7712    0.0000 C   0  0  3  0  0  0  0  0  0  0  0  0
    9.3952    2.0779    0.0000 N   0  0  0  0  0  0  0  0  0  0  0  0
    8.6590    2.4502    0.0000 C   0  0  0  0  0  0  0  0  0  0  0  0
    8.6133    3.2739    0.0000 O   0  0  0  0  0  0  0  0  0  0  0  0
    7.9685    1.9988    0.0000 C   0  0  3  0  0  0  0  0  0  0  0  0
    7.2322    2.3711    0.0000 C   0  0  0  0  0  0  0  0  0  0  0  0
    6.5417    1.9196    0.0000 C   0  0  0  0  0  0  0  0  0  0  0  0
    7.1865    3.1948    0.0000 C   0  0  0  0  0  0  0  0  0  0  0  0
    8.0142    1.1750    0.0000 N   0  0  0  0  0  0  0  0  0  0  0  0
    8.6569    0.6578    0.0000 C   0  0  0  0  0  0  0  0  0  0  0  0
    7.1997    1.0435    0.0000 C   0  0  0  0  0  0  0  0  0  0  0  0
    6.5064    1.4907    0.0000 O   0  0  0  0  0  0  0  0  0  0  0  0
    6.9064    0.2724    0.0000 C   0  0  3  0  0  0  0  0  0  0  0  0
    6.0920    0.1408    0.0000 C   0  0  0  0  0  0  0  0  0  0  0  0
    5.7987   -0.6303    0.0000 C   0  0  0  0  0  0  0  0  0  0  0  0
    6.3198   -1.2698    0.0000 C   0  0  0  0  0  0  0  0  0  0  0  0
    7.1343   -1.1383    0.0000 C   0  0  0  0  0  0  0  0  0  0  0  0
    7.4276   -0.3672    0.0000 N   0  0  0  0  0  0  0  0  0  0  0  0
    6.8460   -0.9523    0.0000 C   0  0  0  0  0  0  0  0  0  0  0  0
    6.0223   -0.9980    0.0000 O   0  0  0  0  0  0  0  0  0  0  0  0
    7.0620   -1.7486    0.0000 C   0  0  3  0  0  0  0  0  0  0  0  0
    6.4804   -2.3337    0.0000 C   0  0  0  0  0  0  0  0  0  0  0  0
    7.8595   -1.9596    0.0000 O   0  0  0  0  0  0  0  0  0  0  0  0
    7.7329   -2.7749    0.0000 C   0  0  0  0  0  0  0  0  0  0  0  0
    6.9637   -3.0729    0.0000 O   0  0  0  0  0  0  0  0  0  0  0  0
    8.3757   -3.2921    0.0000 C   0  0  3  0  0  0  0  0  0  0  0  0
    8.2491   -4.1073    0.0000 C   0  0  0  0  0  0  0  0  0  0  0  0
    7.4798   -4.4053    0.0000 C   0  0  0  0  0  0  0  0  0  0  0  0
    7.3533   -5.2206    0.0000 C   0  0  0  0  0  0  0  0  0  0  0  0
    6.5840   -5.5186    0.0000 C   0  0  0  0  0  0  0  0  0  0  0  0
    5.9412   -5.0014    0.0000 C   0  0  0  0  0  0  0  0  0  0  0  0
    5.1719   -5.2994    0.0000 O   0  0  0  0  0  0  0  0  0  0  0  0
    5.0454   -6.1146    0.0000 C   0  0  0  0  0  0  0  0  0  0  0  0
    4.9188   -6.9299    0.0000 C   0  0  0  0  0  0  0  0  0  0  0  0
    4.2301   -5.9881    0.0000 C   0  0  0  0  0  0  0  0  0  0  0  0
    5.8606   -6.2412    0.0000 C   0  0  0  0  0  0  0  0  0  0  0  0
    6.0678   -4.1861    0.0000 C   0  0  0  0  0  0  0  0  0  0  0  0
    6.8371   -3.8881    0.0000 C   0  0  0  0  0  0  0  0  0  0  0  0
    9.1450   -2.9941    0.0000 N   0  0  0  0  0  0  0  0  0  0  0  0
    9.5218   -3.7280    0.0000 C   0  0  0  0  0  0  0  0  0  0  0  0
    9.0746   -4.4213    0.0000 O   0  0  0  0  0  0  0  0  0  0  0  0
   10.3458   -3.7687    0.0000 C   0  0  3  0  0  0  0  0  0  0  0  0
   10.7226   -4.5026    0.0000 C   0  0  0  0  0  0  0  0  0  0  0  0
   11.5466   -4.5433    0.0000 C   0  0  0  0  0  0  0  0  0  0  0  0
   10.2754   -5.1959    0.0000 C   0  0  0  0  0  0  0  0  0  0  0  0
   10.7930   -3.0754    0.0000 N   0  0  0  0  0  0  0  0  0  0  0  0
   10.5770   -2.2792    0.0000 C   0  0  0  0  0  0  0  0  0  0  0  0
   11.5292   -3.4477    0.0000 C   0  0  0  0  0  0  0  0  0  0  0  0
   11.8272   -4.2170    0.0000 O   0  0  0  0  0  0  0  0  0  0  0  0
   12.2197   -2.9962    0.0000 C   0  0  0  0  0  0  0  0  0  0  0  0
   12.1740   -2.1725    0.0000 N   0  0  0  0  0  0  0  0  0  0  0  0
   12.9885   -2.0409    0.0000 C   0  0  0  0  0  0  0  0  0  0  0  0
   13.5096   -2.6805    0.0000 O   0  0  0  0  0  0  0  0  0  0  0  0
    9.4656    3.5051    0.0000 C   0  0  0  0  0  0  0  0  0  0  0  0
    8.6945    3.7984    0.0000 C   0  0  0  0  0  0  0  0  0  0  0  0
    9.9128    4.1984    0.0000 C   0  0  0  0  0  0  0  0  0  0  0  0
  1  2  1  0  0  0  0
  2  3  1  0  0  0  0
  3  4  1  0  0  0  0
  3  5  1  0  0  0  0
  5  6  1  0  0  0  0
  5 83  1  0  0  0  0
  6  7  1  0  0  0  0
  6  8  1  0  0  0  0
  8  9  2  0  0  0  0
  8 10  1  0  0  0  0
 10 11  1  0  0  0  0
 10 15  1  0  0  0  0
 11 12  1  0  0  0  0
 11 13  1  0  0  0  0
 13 14  1  0  0  0  0
 15 16  1  0  0  0  0
 15 17  1  0  0  0  0
 17 18  2  0  0  0  0
 17 19  1  0  0  0  0
 19 20  1  0  0  0  0
 19 28  1  0  0  0  0
 20 21  1  0  0  0  0
 21 22  2  0  0  0  0
 21 23  1  0  0  0  0
 23 24  1  0  0  0  0
 24 25  1  0  0  0  0
 24 26  1  0  0  0  0
 24 27  1  0  0  0  0
 28 29  1  0  0  0  0
 28 30  1  0  0  0  0
 30 31  2  0  0  0  0
 30 32  1  0  0  0  0
 32 33  1  0  0  0  0
 32 85  1  0  0  0  0
 33 34  1  0  0  0  0
 34 35  2  0  0  0  0
 34 36  1  0  0  0  0
 36 37  1  0  0  0  0
 36 40  1  0  0  0  0
 37 38  1  0  0  0  0
 37 39  1  0  0  0  0
 40 41  1  0  0  0  0
 40 42  1  0  0  0  0
 42 43  2  0  0  0  0
 42 44  1  0  0  0  0
 44 45  1  0  0  0  0
 44 49  1  0  0  0  0
 45 46  1  0  0  0  0
 46 47  1  0  0  0  0
 47 48  1  0  0  0  0
 48 49  1  0  0  0  0
 49 50  1  0  0  0  0
 50 51  2  0  0  0  0
 50 52  1  0  0  0  0
 52 53  1  0  0  0  0
 52 54  1  0  0  0  0
 54 55  1  0  0  0  0
 55 56  2  0  0  0  0
 55 57  1  0  0  0  0
 57 58  1  0  0  0  0
 57 70  1  0  0  0  0
 58 59  1  0  0  0  0
 59 60  2  0  0  0  0
 59 69  1  0  0  0  0
 60 61  1  0  0  0  0
 61 62  2  0  0  0  0
 62 63  1  0  0  0  0
 62 68  1  0  0  0  0
 63 64  1  0  0  0  0
 64 65  1  0  0  0  0
 64 66  1  0  0  0  0
 64 67  1  0  0  0  0
 68 69  2  0  0  0  0
 70 71  1  0  0  0  0
 71 72  2  0  0  0  0
 71 73  1  0  0  0  0
 73 74  1  0  0  0  0
 73 77  1  0  0  0  0
 74 75  1  0  0  0  0
 74 76  1  0  0  0  0
 77 78  1  0  0  0  0
 77 79  1  0  0  0  0
 79 80  2  0  0  0  0
 79 81  1  0  0  0  0
 81 82  1  0  0  0  0
 82 83  1  0  0  0  0
 83 84  2  0  0  0  0
 85 86  1  0  0  0  0
 85 87  1  0  0  0  0
M  END
$$$$

 OpenBabel12191814062D

 84 86  0  0  0  0  0  0  0  0999 V2000
   14.3241   -2.5489    0.0000 C   0  0  0  0  0  0  0  0  0  0  0  0
   14.6173   -1.7778    0.0000 C   0  0  0  0  0  0  0  0  0  0  0  0
   14.0962   -1.1383    0.0000 C   0  0  3  0  0  0  0  0  0  0  0  0
   14.3895   -0.3672    0.0000 C   0  0  0  0  0  0  0  0  0  0  0  0
   13.2818   -1.2698    0.0000 C   0  0  3  0  0  0  0  0  0  0  0  0
   12.7606   -0.6303    0.0000 N   0  0  0  0  0  0  0  0  0  0  0  0
   11.9366   -0.5896    0.0000 C   0  0  0  0  0  0  0  0  0  0  0  0
   13.3422   -0.0451    0.0000 C   0  0  0  0  0  0  0  0  0  0  0  0
   14.1659    0.0006    0.0000 O   0  0  0  0  0  0  0  0  0  0  0  0
   13.1262    0.7511    0.0000 C   0  0  3  0  0  0  0  0  0  0  0  0
   13.7078    1.3362    0.0000 C   0  0  3  0  0  0  0  0  0  0  0  0
   13.4918    2.1325    0.0000 C   0  0  0  0  0  0  0  0  0  0  0  0
   14.5053    1.1252    0.0000 C   0  0  0  0  0  0  0  0  0  0  0  0
   14.7213    0.3289    0.0000 C   0  0  0  0  0  0  0  0  0  0  0  0
   12.3287    0.9622    0.0000 N   0  0  0  0  0  0  0  0  0  0  0  0
   11.6381    0.5107    0.0000 C   0  0  0  0  0  0  0  0  0  0  0  0
   12.4552    1.7774    0.0000 C   0  0  0  0  0  0  0  0  0  0  0  0
   13.0948    2.2986    0.0000 O   0  0  0  0  0  0  0  0  0  0  0  0
   11.8125    2.2946    0.0000 C   0  0  3  0  0  0  0  0  0  0  0  0
   11.9391    3.1099    0.0000 C   0  0  0  0  0  0  0  0  0  0  0  0
   12.7083    3.4079    0.0000 C   0  0  0  0  0  0  0  0  0  0  0  0
   12.8349    4.2231    0.0000 O   0  0  0  0  0  0  0  0  0  0  0  0
   13.3511    2.8907    0.0000 O   0  0  0  0  0  0  0  0  0  0  0  0
   14.1204    3.1887    0.0000 C   0  0  0  0  0  0  0  0  0  0  0  0
   14.8897    3.4867    0.0000 C   0  0  0  0  0  0  0  0  0  0  0  0
   13.8224    3.9580    0.0000 C   0  0  0  0  0  0  0  0  0  0  0  0
   14.4184    2.4194    0.0000 C   0  0  0  0  0  0  0  0  0  0  0  0
   11.0432    1.9966    0.0000 N   0  0  0  0  0  0  0  0  0  0  0  0
   10.7499    1.2255    0.0000 C   0  0  0  0  0  0  0  0  0  0  0  0
   10.6664    2.7305    0.0000 C   0  0  0  0  0  0  0  0  0  0  0  0
   11.1136    3.4238    0.0000 O   0  0  0  0  0  0  0  0  0  0  0  0
    9.8424    2.7712    0.0000 C   0  0  3  0  0  0  0  0  0  0  0  0
    9.3952    2.0779    0.0000 N   0  0  0  0  0  0  0  0  0  0  0  0
    8.6590    2.4502    0.0000 C   0  0  0  0  0  0  0  0  0  0  0  0
    8.6133    3.2739    0.0000 O   0  0  0  0  0  0  0  0  0  0  0  0
    7.9685    1.9988    0.0000 C   0  0  3  0  0  0  0  0  0  0  0  0
    7.2322    2.3711    0.0000 C   0  0  0  0  0  0  0  0  0  0  0  0
    6.5417    1.9196    0.0000 C   0  0  0  0  0  0  0  0  0  0  0  0
    7.1865    3.1948    0.0000 C   0  0  0  0  0  0  0  0  0  0  0  0
    8.0142    1.1750    0.0000 N   0  0  0  0  0  0  0  0  0  0  0  0
    8.6569    0.6578    0.0000 C   0  0  0  0  0  0  0  0  0  0  0  0
    7.1997    1.0435    0.0000 C   0  0  0  0  0  0  0  0  0  0  0  0
    6.5064    1.4907    0.0000 O   0  0  0  0  0  0  0  0  0  0  0  0
    6.9064    0.2724    0.0000 C   0  0  3  0  0  0  0  0  0  0  0  0
    6.0920    0.1408    0.0000 C   0  0  0  0  0  0  0  0  0  0  0  0
    5.7987   -0.6303    0.0000 C   0  0  0  0  0  0  0  0  0  0  0  0
    6.3198   -1.2698    0.0000 C   0  0  0  0  0  0  0  0  0  0  0  0
    7.1343   -1.1383    0.0000 C   0  0  0  0  0  0  0  0  0  0  0  0
    7.4276   -0.3672    0.0000 N   0  0  0  0  0  0  0  0  0  0  0  0
    6.8460   -0.9523    0.0000 C   0  0  0  0  0  0  0  0  0  0  0  0
    6.0223   -0.9980    0.0000 O   0  0  0  0  0  0  0  0  0  0  0  0
    7.0620   -1.7486    0.0000 C   0  0  3  0  0  0  0  0  0  0  0  0
    6.4804   -2.3337    0.0000 C   0  0  0  0  0  0  0  0  0  0  0  0
    7.8595   -1.9596    0.0000 O   0  0  0  0  0  0  0  0  0  0  0  0
    7.7329   -2.7749    0.0000 C   0  0  0  0  0  0  0  0  0  0  0  0
    6.9637   -3.0729    0.0000 O   0  0  0  0  0  0  0  0  0  0  0  0
    8.3757   -3.2921    0.0000 C   0  0  3  0  0  0  0  0  0  0  0  0
    8.2491   -4.1073    0.0000 C   0  0  0  0  0  0  0  0  0  0  0  0
    7.4798   -4.4053    0.0000 C   0  0  0  0  0  0  0  0  0  0  0  0
    7.3533   -5.2206    0.0000 C   0  0  0  0  0  0  0  0  0  0  0  0
    6.5840   -5.5186    0.0000 C   0  0  0  0  0  0  0  0  0  0  0  0
    5.9412   -5.0014    0.0000 C   0  0  0  0  0  0  0  0  0  0  0  0
    5.1719   -5.2994    0.0000 O   0  0  0  0  0  0  0  0  0  0  0  0
    5.0454   -6.1146    0.0000 C   0  0  0  0  0  0  0  0  0  0  0  0
    6.0678   -4.1861    0.0000 C   0  0  0  0  0  0  0  0  0  0  0  0
    6.8371   -3.8881    0.0000 C   0  0  0  0  0  0  0  0  0  0  0  0
    9.1450   -2.9941    0.0000 N   0  0  0  0  0  0  0  0  0  0  0  0
    9.5218   -3.7280    0.0000 C   0  0  0  0  0  0  0  0  0  0  0  0
    9.0746   -4.4213    0.0000 O   0  0  0  0  0  0  0  0  0  0  0  0
   10.3458   -3.7687    0.0000 C   0  0  3  0  0  0  0  0  0  0  0  0
   10.7226   -4.5026    0.0000 C   0  0  0  0  0  0  0  0  0  0  0  0
   11.5466   -4.5433    0.0000 C   0  0  0  0  0  0  0  0  0  0  0  0
   10.2754   -5.1959    0.0000 C   0  0  0  0  0  0  0  0  0  0  0  0
   10.7930   -3.0754    0.0000 N   0  0  0  0  0  0  0  0  0  0  0  0
   10.5770   -2.2792    0.0000 C   0  0  0  0  0  0  0  0  0  0  0  0
   11.5292   -3.4477    0.0000 C   0  0  0  0  0  0  0  0  0  0  0  0
   11.8272   -4.2170    0.0000 O   0  0  0  0  0  0  0  0  0  0  0  0
   12.2197   -2.9962    0.0000 C   0  0  0  0  0  0  0  0  0  0  0  0
   12.1740   -2.1725    0.0000 N   0  0  0  0  0  0  0  0  0  0  0  0
   12.9885   -2.0409    0.0000 C   0  0  0  0  0  0  0  0  0  0  0  0
   13.5096   -2.6805    0.0000 O   0  0  0  0  0  0  0  0  0  0  0  0
    9.4656    3.5051    0.0000 C   0  0  0  0  0  0  0  0  0  0  0  0
    8.6945    3.7984    0.0000 C   0  0  0  0  0  0  0  0  0  0  0  0
    9.9128    4.1984    0.0000 C   0  0  0  0  0  0  0  0  0  0  0  0
  1  2  1  0  0  0  0
  2  3  1  0  0  0  0
  3  4  1  0  0  0  0
  3  5  1  0  0  0  0
  5  6  1  0  0  0  0
  5 80  1  0  0  0  0
  6  7  1  0  0  0  0
  6  8  1  0  0  0  0
  8  9  2  0  0  0  0
  8 10  1  0  0  0  0
 10 11  1  0  0  0  0
 10 15  1  0  0  0  0
 11 12  1  0  0  0  0
 11 13  1  0  0  0  0
 13 14  1  0  0  0  0
 15 16  1  0  0  0  0
 15 17  1  0  0  0  0
 17 18  2  0  0  0  0
 17 19  1  0  0  0  0
 19 20  1  0  0  0  0
 19 28  1  0  0  0  0
 20 21  1  0  0  0  0
 21 22  2  0  0  0  0
 21 23  1  0  0  0  0
 23 24  1  0  0  0  0
 24 25  1  0  0  0  0
 24 26  1  0  0  0  0
 24 27  1  0  0  0  0
 28 29  1  0  0  0  0
 28 30  1  0  0  0  0
 30 31  2  0  0  0  0
 30 32  1  0  0  0  0
 32 33  1  0  0  0  0
 32 82  1  0  0  0  0
 33 34  1  0  0  0  0
 34 35  2  0  0  0  0
 34 36  1  0  0  0  0
 36 37  1  0  0  0  0
 36 40  1  0  0  0  0
 37 38  1  0  0  0  0
 37 39  1  0  0  0  0
 40 41  1  0  0  0  0
 40 42  1  0  0  0  0
 42 43  2  0  0  0  0
 42 44  1  0  0  0  0
 44 45  1  0  0  0  0
 44 49  1  0  0  0  0
 45 46  1  0  0  0  0
 46 47  1  0  0  0  0
 47 48  1  0  0  0  0
 48 49  1  0  0  0  0
 49 50  1  0  0  0  0
 50 51  2  0  0  0  0
 50 52  1  0  0  0  0
 52 53  1  0  0  0  0
 52 54  1  0  0  0  0
 54 55  1  0  0  0  0
 55 56  2  0  0  0  0
 55 57  1  0  0  0  0
 57 58  1  0  0  0  0
 57 67  1  0  0  0  0
 58 59  1  0  0  0  0
 59 60  2  0  0  0  0
 59 66  1  0  0  0  0
 60 61  1  0  0  0  0
 61 62  2  0  0  0  0
 62 63  1  0  0  0  0
 62 65  1  0  0  0  0
 63 64  1  0  0  0  0
 65 66  2  0  0  0  0
 67 68  1  0  0  0  0
 68 69  2  0  0  0  0
 68 70  1  0  0  0  0
 70 71  1  0  0  0  0
 70 74  1  0  0  0  0
 71 72  1  0  0  0  0
 71 73  1  0  0  0  0
 74 75  1  0  0  0  0
 74 76  1  0  0  0  0
 76 77  2  0  0  0  0
 76 78  1  0  0  0  0
 78 79  1  0  0  0  0
 79 80  1  0  0  0  0
 80 81  2  0  0  0  0
 82 83  1  0  0  0  0
 82 84  1  0  0  0  0
M  END
$$$$

 OpenBabel12191814062D

 81 83  0  0  0  0  0  0  0  0999 V2000
   14.3241   -2.5489    0.0000 C   0  0  0  0  0  0  0  0  0  0  0  0
   14.6173   -1.7778    0.0000 C   0  0  0  0  0  0  0  0  0  0  0  0
   14.0962   -1.1383    0.0000 C   0  0  3  0  0  0  0  0  0  0  0  0
   14.3895   -0.3672    0.0000 C   0  0  0  0  0  0  0  0  0  0  0  0
   13.2818   -1.2698    0.0000 C   0  0  3  0  0  0  0  0  0  0  0  0
   12.7606   -0.6303    0.0000 N   0  0  0  0  0  0  0  0  0  0  0  0
   11.9366   -0.5896    0.0000 C   0  0  0  0  0  0  0  0  0  0  0  0
   13.3422   -0.0451    0.0000 C   0  0  0  0  0  0  0  0  0  0  0  0
   14.1659    0.0006    0.0000 O   0  0  0  0  0  0  0  0  0  0  0  0
   13.1262    0.7511    0.0000 C   0  0  3  0  0  0  0  0  0  0  0  0
   13.7078    1.3362    0.0000 C   0  0  3  0  0  0  0  0  0  0  0  0
   13.4918    2.1325    0.0000 C   0  0  0  0  0  0  0  0  0  0  0  0
   14.5053    1.1252    0.0000 C   0  0  0  0  0  0  0  0  0  0  0  0
   14.7213    0.3289    0.0000 C   0  0  0  0  0  0  0  0  0  0  0  0
   12.3287    0.9622    0.0000 N   0  0  0  0  0  0  0  0  0  0  0  0
   11.6381    0.5107    0.0000 C   0  0  0  0  0  0  0  0  0  0  0  0
   12.4552    1.7774    0.0000 C   0  0  0  0  0  0  0  0  0  0  0  0
   13.0948    2.2986    0.0000 O   0  0  0  0  0  0  0  0  0  0  0  0
   11.8125    2.2946    0.0000 C   0  0  3  0  0  0  0  0  0  0  0  0
   11.9391    3.1099    0.0000 C   0  0  0  0  0  0  0  0  0  0  0  0
   12.7083    3.4079    0.0000 C   0  0  0  0  0  0  0  0  0  0  0  0
   12.8349    4.2231    0.0000 O   0  0  0  0  0  0  0  0  0  0  0  0
   13.3511    2.8907    0.0000 O   0  0  0  0  0  0  0  0  0  0  0  0
   14.1204    3.1887    0.0000 C   0  0  0  0  0  0  0  0  0  0  0  0
   11.0432    1.9966    0.0000 N   0  0  0  0  0  0  0  0  0  0  0  0
   10.7499    1.2255    0.0000 C   0  0  0  0  0  0  0  0  0  0  0  0
   10.6664    2.7305    0.0000 C   0  0  0  0  0  0  0  0  0  0  0  0
   11.1136    3.4238    0.0000 O   0  0  0  0  0  0  0  0  0  0  0  0
    9.8424    2.7712    0.0000 C   0  0  3  0  0  0  0  0  0  0  0  0
    9.3952    2.0779    0.0000 N   0  0  0  0  0  0  0  0  0  0  0  0
    8.6590    2.4502    0.0000 C   0  0  0  0  0  0  0  0  0  0  0  0
    8.6133    3.2739    0.0000 O   0  0  0  0  0  0  0  0  0  0  0  0
    7.9685    1.9988    0.0000 C   0  0  3  0  0  0  0  0  0  0  0  0
    7.2322    2.3711    0.0000 C   0  0  0  0  0  0  0  0  0  0  0  0
    6.5417    1.9196    0.0000 C   0  0  0  0  0  0  0  0  0  0  0  0
    7.1865    3.1948    0.0000 C   0  0  0  0  0  0  0  0  0  0  0  0
    8.0142    1.1750    0.0000 N   0  0  0  0  0  0  0  0  0  0  0  0
    8.6569    0.6578    0.0000 C   0  0  0  0  0  0  0  0  0  0  0  0
    7.1997    1.0435    0.0000 C   0  0  0  0  0  0  0  0  0  0  0  0
    6.5064    1.4907    0.0000 O   0  0  0  0  0  0  0  0  0  0  0  0
    6.9064    0.2724    0.0000 C   0  0  3  0  0  0  0  0  0  0  0  0
    6.0920    0.1408    0.0000 C   0  0  0  0  0  0  0  0  0  0  0  0
    5.7987   -0.6303    0.0000 C   0  0  0  0  0  0  0  0  0  0  0  0
    6.3198   -1.2698    0.0000 C   0  0  0  0  0  0  0  0  0  0  0  0
    7.1343   -1.1383    0.0000 C   0  0  0  0  0  0  0  0  0  0  0  0
    7.4276   -0.3672    0.0000 N   0  0  0  0  0  0  0  0  0  0  0  0
    6.8460   -0.9523    0.0000 C   0  0  0  0  0  0  0  0  0  0  0  0
    6.0223   -0.9980    0.0000 O   0  0  0  0  0  0  0  0  0  0  0  0
    7.0620   -1.7486    0.0000 C   0  0  3  0  0  0  0  0  0  0  0  0
    6.4804   -2.3337    0.0000 C   0  0  0  0  0  0  0  0  0  0  0  0
    7.8595   -1.9596    0.0000 O   0  0  0  0  0  0  0  0  0  0  0  0
    7.7329   -2.7749    0.0000 C   0  0  0  0  0  0  0  0  0  0  0  0
    6.9637   -3.0729    0.0000 O   0  0  0  0  0  0  0  0  0  0  0  0
    8.3757   -3.2921    0.0000 C   0  0  3  0  0  0  0  0  0  0  0  0
    8.2491   -4.1073    0.0000 C   0  0  0  0  0  0  0  0  0  0  0  0
    7.4798   -4.4053    0.0000 C   0  0  0  0  0  0  0  0  0  0  0  0
    7.3533   -5.2206    0.0000 C   0  0  0  0  0  0  0  0  0  0  0  0
    6.5840   -5.5186    0.0000 C   0  0  0  0  0  0  0  0  0  0  0  0
    5.9412   -5.0014    0.0000 C   0  0  0  0  0  0  0  0  0  0  0  0
    5.1719   -5.2994    0.0000 O   0  0  0  0  0  0  0  0  0  0  0  0
    5.0454   -6.1146    0.0000 C   0  0  0  0  0  0  0  0  0  0  0  0
    6.0678   -4.1861    0.0000 C   0  0  0  0  0  0  0  0  0  0  0  0
    6.8371   -3.8881    0.0000 C   0  0  0  0  0  0  0  0  0  0  0  0
    9.1450   -2.9941    0.0000 N   0  0  0  0  0  0  0  0  0  0  0  0
    9.5218   -3.7280    0.0000 C   0  0  0  0  0  0  0  0  0  0  0  0
    9.0746   -4.4213    0.0000 O   0  0  0  0  0  0  0  0  0  0  0  0
   10.3458   -3.7687    0.0000 C   0  0  3  0  0  0  0  0  0  0  0  0
   10.7226   -4.5026    0.0000 C   0  0  0  0  0  0  0  0  0  0  0  0
   11.5466   -4.5433    0.0000 C   0  0  0  0  0  0  0  0  0  0  0  0
   10.2754   -5.1959    0.0000 C   0  0  0  0  0  0  0  0  0  0  0  0
   10.7930   -3.0754    0.0000 N   0  0  0  0  0  0  0  0  0  0  0  0
   10.5770   -2.2792    0.0000 C   0  0  0  0  0  0  0  0  0  0  0  0
   11.5292   -3.4477    0.0000 C   0  0  0  0  0  0  0  0  0  0  0  0
   11.8272   -4.2170    0.0000 O   0  0  0  0  0  0  0  0  0  0  0  0
   12.2197   -2.9962    0.0000 C   0  0  0  0  0  0  0  0  0  0  0  0
   12.1740   -2.1725    0.0000 N   0  0  0  0  0  0  0  0  0  0  0  0
   12.9885   -2.0409    0.0000 C   0  0  0  0  0  0  0  0  0  0  0  0
   13.5096   -2.6805    0.0000 O   0  0  0  0  0  0  0  0  0  0  0  0
    9.4656    3.5051    0.0000 C   0  0  0  0  0  0  0  0  0  0  0  0
    8.6945    3.7984    0.0000 C   0  0  0  0  0  0  0  0  0  0  0  0
    9.9128    4.1984    0.0000 C   0  0  0  0  0  0  0  0  0  0  0  0
  1  2  1  0  0  0  0
  2  3  1  0  0  0  0
  3  4  1  0  0  0  0
  3  5  1  0  0  0  0
  5  6  1  0  0  0  0
  5 77  1  0  0  0  0
  6  7  1  0  0  0  0
  6  8  1  0  0  0  0
  8  9  2  0  0  0  0
  8 10  1  0  0  0  0
 10 11  1  0  0  0  0
 10 15  1  0  0  0  0
 11 12  1  0  0  0  0
 11 13  1  0  0  0  0
 13 14  1  0  0  0  0
 15 16  1  0  0  0  0
 15 17  1  0  0  0  0
 17 18  2  0  0  0  0
 17 19  1  0  0  0  0
 19 20  1  0  0  0  0
 19 25  1  0  0  0  0
 20 21  1  0  0  0  0
 21 22  2  0  0  0  0
 21 23  1  0  0  0  0
 23 24  1  0  0  0  0
 25 26  1  0  0  0  0
 25 27  1  0  0  0  0
 27 28  2  0  0  0  0
 27 29  1  0  0  0  0
 29 30  1  0  0  0  0
 29 79  1  0  0  0  0
 30 31  1  0  0  0  0
 31 32  2  0  0  0  0
 31 33  1  0  0  0  0
 33 34  1  0  0  0  0
 33 37  1  0  0  0  0
 34 35  1  0  0  0  0
 34 36  1  0  0  0  0
 37 38  1  0  0  0  0
 37 39  1  0  0  0  0
 39 40  2  0  0  0  0
 39 41  1  0  0  0  0
 41 42  1  0  0  0  0
 41 46  1  0  0  0  0
 42 43  1  0  0  0  0
 43 44  1  0  0  0  0
 44 45  1  0  0  0  0
 45 46  1  0  0  0  0
 46 47  1  0  0  0  0
 47 48  2  0  0  0  0
 47 49  1  0  0  0  0
 49 50  1  0  0  0  0
 49 51  1  0  0  0  0
 51 52  1  0  0  0  0
 52 53  2  0  0  0  0
 52 54  1  0  0  0  0
 54 55  1  0  0  0  0
 54 64  1  0  0  0  0
 55 56  1  0  0  0  0
 56 57  2  0  0  0  0
 56 63  1  0  0  0  0
 57 58  1  0  0  0  0
 58 59  2  0  0  0  0
 59 60  1  0  0  0  0
 59 62  1  0  0  0  0
 60 61  1  0  0  0  0
 62 63  2  0  0  0  0
 64 65  1  0  0  0  0
 65 66  2  0  0  0  0
 65 67  1  0  0  0  0
 67 68  1  0  0  0  0
 67 71  1  0  0  0  0
 68 69  1  0  0  0  0
 68 70  1  0  0  0  0
 71 72  1  0  0  0  0
 71 73  1  0  0  0  0
 73 74  2  0  0  0  0
 73 75  1  0  0  0  0
 75 76  1  0  0  0  0
 76 77  1  0  0  0  0
 77 78  2  0  0  0  0
 79 80  1  0  0  0  0
 79 81  1  0  0  0  0
M  END
$$$$

 OpenBabel12191814062D

 90 95  0  0  0  0  0  0  0  0999 V2000
   -0.2922    3.4985    0.0000 C   0  0  0  0  0  0  0  0  0  0  0  0
   -0.7771    2.8311    0.0000 C   0  0  0  0  0  0  0  0  0  0  0  0
   -0.4416    2.0774    0.0000 C   0  0  3  0  0  0  0  0  0  0  0  0
   -0.9265    1.4100    0.0000 C   0  0  0  0  0  0  0  0  0  0  0  0
    0.3789    1.9912    0.0000 C   0  0  3  0  0  0  0  0  0  0  0  0
    0.7145    1.2375    0.0000 N   0  0  0  0  0  0  0  0  0  0  0  0
    1.4991    0.9826    0.0000 C   0  0  0  0  0  0  0  0  0  0  0  0
    0.0000    0.8250    0.0000 C   0  0  0  0  0  0  0  0  0  0  0  0
   -0.8070    0.9965    0.0000 O   0  0  0  0  0  0  0  0  0  0  0  0
    0.0000    0.0000    0.0000 C   0  0  3  0  0  0  0  0  0  0  0  0
   -0.7145   -0.4125    0.0000 C   0  0  3  0  0  0  0  0  0  0  0  0
   -0.7145   -1.2375    0.0000 C   0  0  0  0  0  0  0  0  0  0  0  0
   -1.4289    0.0000    0.0000 C   0  0  0  0  0  0  0  0  0  0  0  0
   -1.4289    0.8250    0.0000 C   0  0  0  0  0  0  0  0  0  0  0  0
    0.7145   -0.4125    0.0000 N   0  0  0  0  0  0  0  0  0  0  0  0
    1.4991   -0.1576    0.0000 C   0  0  0  0  0  0  0  0  0  0  0  0
    0.3789   -1.1662    0.0000 C   0  0  0  0  0  0  0  0  0  0  0  0
   -0.3748   -1.5017    0.0000 O   0  0  0  0  0  0  0  0  0  0  0  0
    0.8638   -1.8336    0.0000 C   0  0  3  0  0  0  0  0  0  0  0  0
    0.5283   -2.5873    0.0000 C   0  0  0  0  0  0  0  0  0  0  0  0
   -0.2922   -2.6735    0.0000 C   0  0  0  0  0  0  0  0  0  0  0  0
   -0.6278   -3.4272    0.0000 O   0  0  0  0  0  0  0  0  0  0  0  0
   -0.7771   -2.0061    0.0000 O   0  0  0  0  0  0  0  0  0  0  0  0
   -1.5976   -2.0923    0.0000 C   0  0  3  0  0  0  0  0  0  0  0  0
   -1.1491   -2.7847    0.0000 C   0  0  0  0  0  0  0  0  0  0  0  0
   -1.9820   -2.4203    0.0000 C   0  0  3  0  0  0  0  0  0  0  0  0
   -2.7254   -2.4984    0.0000 C   0  0  0  0  0  0  0  0  0  0  0  0
   -3.1739   -1.8059    0.0000 C   0  0  3  0  0  0  0  0  0  0  0  0
   -2.8790   -1.0353    0.0000 C   0  0  0  0  0  0  0  0  0  0  0  0
   -2.1357   -0.9572    0.0000 C   0  0  3  0  0  0  0  0  0  0  0  0
   -1.6872   -1.6498    0.0000 C   0  0  0  0  0  0  0  0  0  0  0  0
   -1.3028   -1.3217    0.0000 C   0  0  0  0  0  0  0  0  0  0  0  0
   -2.3409   -2.1704    0.0000 C   0  0  0  0  0  0  0  0  0  0  0  0
    1.6843   -1.7474    0.0000 N   0  0  0  0  0  0  0  0  0  0  0  0
    2.1692   -1.0799    0.0000 C   0  0  0  0  0  0  0  0  0  0  0  0
    1.8558   -2.5543    0.0000 C   0  0  0  0  0  0  0  0  0  0  0  0
    1.2427   -3.1064    0.0000 O   0  0  0  0  0  0  0  0  0  0  0  0
    2.6405   -2.8093    0.0000 C   0  0  3  0  0  0  0  0  0  0  0  0
    3.2536   -2.2573    0.0000 N   0  0  0  0  0  0  0  0  0  0  0  0
    3.8667   -2.8093    0.0000 C   0  0  0  0  0  0  0  0  0  0  0  0
    3.6951   -3.6163    0.0000 O   0  0  0  0  0  0  0  0  0  0  0  0
    4.6513   -2.5543    0.0000 C   0  0  3  0  0  0  0  0  0  0  0  0
    5.2644   -3.1064    0.0000 C   0  0  0  0  0  0  0  0  0  0  0  0
    6.0490   -2.8514    0.0000 C   0  0  0  0  0  0  0  0  0  0  0  0
    5.0928   -3.9134    0.0000 C   0  0  0  0  0  0  0  0  0  0  0  0
    4.8228   -1.7474    0.0000 N   0  0  0  0  0  0  0  0  0  0  0  0
    4.3379   -1.0799    0.0000 C   0  0  0  0  0  0  0  0  0  0  0  0
    5.6433   -1.8336    0.0000 C   0  0  0  0  0  0  0  0  0  0  0  0
    6.1953   -2.4467    0.0000 O   0  0  0  0  0  0  0  0  0  0  0  0
    6.1282   -1.1662    0.0000 C   0  0  3  0  0  0  0  0  0  0  0  0
    6.9487   -1.2524    0.0000 C   0  0  0  0  0  0  0  0  0  0  0  0
    7.4336   -0.5850    0.0000 C   0  0  0  0  0  0  0  0  0  0  0  0
    7.0981    0.1687    0.0000 C   0  0  0  0  0  0  0  0  0  0  0  0
    6.2776    0.2549    0.0000 C   0  0  0  0  0  0  0  0  0  0  0  0
    5.7926   -0.4125    0.0000 N   0  0  0  0  0  0  0  0  0  0  0  0
    6.5071   -0.0000    0.0000 C   0  0  0  0  0  0  0  0  0  0  0  0
    7.3141   -0.1715    0.0000 O   0  0  0  0  0  0  0  0  0  0  0  0
    6.5071    0.8250    0.0000 C   0  0  3  0  0  0  0  0  0  0  0  0
    7.2216    1.2375    0.0000 C   0  0  0  0  0  0  0  0  0  0  0  0
    5.7926    1.2375    0.0000 O   0  0  0  0  0  0  0  0  0  0  0  0
    6.1282    1.9912    0.0000 C   0  0  0  0  0  0  0  0  0  0  0  0
    6.9487    2.0774    0.0000 O   0  0  0  0  0  0  0  0  0  0  0  0
    5.6433    2.6586    0.0000 C   0  0  3  0  0  0  0  0  0  0  0  0
    5.9788    3.4123    0.0000 C   0  0  0  0  0  0  0  0  0  0  0  0
    6.7993    3.4985    0.0000 C   0  0  0  0  0  0  0  0  0  0  0  0
    7.1349    4.2522    0.0000 C   0  0  0  0  0  0  0  0  0  0  0  0
    7.9554    4.3384    0.0000 C   0  0  0  0  0  0  0  0  0  0  0  0
    8.4403    3.6710    0.0000 C   0  0  0  0  0  0  0  0  0  0  0  0
    9.2608    3.7572    0.0000 O   0  0  0  0  0  0  0  0  0  0  0  0
    9.5963    4.5109    0.0000 C   0  0  0  0  0  0  0  0  0  0  0  0
    8.1047    2.9173    0.0000 C   0  0  0  0  0  0  0  0  0  0  0  0
    7.2842    2.8311    0.0000 C   0  0  0  0  0  0  0  0  0  0  0  0
    4.8228    2.5724    0.0000 N   0  0  0  0  0  0  0  0  0  0  0  0
    4.6513    3.3793    0.0000 C   0  0  0  0  0  0  0  0  0  0  0  0
    5.2644    3.9314    0.0000 O   0  0  0  0  0  0  0  0  0  0  0  0
    3.8667    3.6343    0.0000 C   0  0  3  0  0  0  0  0  0  0  0  0
    3.6951    4.4413    0.0000 C   0  0  0  0  0  0  0  0  0  0  0  0
    2.9105    4.6962    0.0000 C   0  0  0  0  0  0  0  0  0  0  0  0
    4.3082    4.9933    0.0000 C   0  0  0  0  0  0  0  0  0  0  0  0
    3.2536    3.0823    0.0000 N   0  0  0  0  0  0  0  0  0  0  0  0
    3.2536    2.2573    0.0000 C   0  0  0  0  0  0  0  0  0  0  0  0
    2.6405    3.6343    0.0000 C   0  0  0  0  0  0  0  0  0  0  0  0
    2.5542    4.4548    0.0000 O   0  0  0  0  0  0  0  0  0  0  0  0
    1.8558    3.3793    0.0000 C   0  0  0  0  0  0  0  0  0  0  0  0
    1.6843    2.5724    0.0000 N   0  0  0  0  0  0  0  0  0  0  0  0
    0.8638    2.6586    0.0000 C   0  0  0  0  0  0  0  0  0  0  0  0
    0.5283    3.4123    0.0000 O   0  0  0  0  0  0  0  0  0  0  0  0
    2.8120   -3.6163    0.0000 C   0  0  0  0  0  0  0  0  0  0  0  0
    3.4794   -4.1012    0.0000 C   0  0  0  0  0  0  0  0  0  0  0  0
    2.1989   -4.1683    0.0000 C   0  0  0  0  0  0  0  0  0  0  0  0
  1  2  1  0  0  0  0
  2  3  1  0  0  0  0
  3  4  1  0  0  0  0
  3  5  1  0  0  0  0
  5  6  1  0  0  0  0
  5 86  1  0  0  0  0
  6  7  1  0  0  0  0
  6  8  1  0  0  0  0
  8  9  2  0  0  0  0
  8 10  1  0  0  0  0
 10 11  1  0  0  0  0
 10 15  1  0  0  0  0
 11 12  1  0  0  0  0
 11 13  1  0  0  0  0
 13 14  1  0  0  0  0
 15 16  1  0  0  0  0
 15 17  1  0  0  0  0
 17 18  2  0  0  0  0
 17 19  1  0  0  0  0
 19 20  1  0  0  0  0
 19 34  1  0  0  0  0
 20 21  1  0  0  0  0
 21 22  2  0  0  0  0
 21 23  1  0  0  0  0
 23 24  1  0  0  0  0
 24 25  1  0  0  0  0
 24 32  1  0  0  0  0
 24 33  1  0  0  0  0
 25 26  1  0  0  0  0
 26 27  1  0  0  0  0
 26 31  1  0  0  0  0
 27 28  1  0  0  0  0
 28 29  1  0  0  0  0
 28 33  1  0  0  0  0
 29 30  1  0  0  0  0
 30 31  1  0  0  0  0
 30 32  1  0  0  0  0
 34 35  1  0  0  0  0
 34 36  1  0  0  0  0
 36 37  2  0  0  0  0
 36 38  1  0  0  0  0
 38 39  1  0  0  0  0
 38 88  1  0  0  0  0
 39 40  1  0  0  0  0
 40 41  2  0  0  0  0
 40 42  1  0  0  0  0
 42 43  1  0  0  0  0
 42 46  1  0  0  0  0
 43 44  1  0  0  0  0
 43 45  1  0  0  0  0
 46 47  1  0  0  0  0
 46 48  1  0  0  0  0
 48 49  2  0  0  0  0
 48 50  1  0  0  0  0
 50 51  1  0  0  0  0
 50 55  1  0  0  0  0
 51 52  1  0  0  0  0
 52 53  1  0  0  0  0
 53 54  1  0  0  0  0
 54 55  1  0  0  0  0
 55 56  1  0  0  0  0
 56 57  2  0  0  0  0
 56 58  1  0  0  0  0
 58 59  1  0  0  0  0
 58 60  1  0  0  0  0
 60 61  1  0  0  0  0
 61 62  2  0  0  0  0
 61 63  1  0  0  0  0
 63 64  1  0  0  0  0
 63 73  1  0  0  0  0
 64 65  1  0  0  0  0
 65 66  2  0  0  0  0
 65 72  1  0  0  0  0
 66 67  1  0  0  0  0
 67 68  2  0  0  0  0
 68 69  1  0  0  0  0
 68 71  1  0  0  0  0
 69 70  1  0  0  0  0
 71 72  2  0  0  0  0
 73 74  1  0  0  0  0
 74 75  2  0  0  0  0
 74 76  1  0  0  0  0
 76 77  1  0  0  0  0
 76 80  1  0  0  0  0
 77 78  1  0  0  0  0
 77 79  1  0  0  0  0
 80 81  1  0  0  0  0
 80 82  1  0  0  0  0
 82 83  2  0  0  0  0
 82 84  1  0  0  0  0
 84 85  1  0  0  0  0
 85 86  1  0  0  0  0
 86 87  2  0  0  0  0
 88 89  1  0  0  0  0
 88 90  1  0  0  0  0
M  END
$$$$

 OpenBabel12191814062D

 86 88  0  0  0  0  0  0  0  0999 V2000
   14.3241   -2.5489    0.0000 C   0  0  0  0  0  0  0  0  0  0  0  0
   14.6173   -1.7778    0.0000 C   0  0  0  0  0  0  0  0  0  0  0  0
   14.0962   -1.1383    0.0000 C   0  0  3  0  0  0  0  0  0  0  0  0
   14.3895   -0.3672    0.0000 C   0  0  0  0  0  0  0  0  0  0  0  0
   13.2818   -1.2698    0.0000 C   0  0  3  0  0  0  0  0  0  0  0  0
   12.7606   -0.6303    0.0000 N   0  0  0  0  0  0  0  0  0  0  0  0
   11.9366   -0.5896    0.0000 C   0  0  0  0  0  0  0  0  0  0  0  0
   13.3422   -0.0451    0.0000 C   0  0  0  0  0  0  0  0  0  0  0  0
   14.1659    0.0006    0.0000 O   0  0  0  0  0  0  0  0  0  0  0  0
   13.1262    0.7511    0.0000 C   0  0  3  0  0  0  0  0  0  0  0  0
   13.7078    1.3362    0.0000 C   0  0  3  0  0  0  0  0  0  0  0  0
   13.4918    2.1325    0.0000 C   0  0  0  0  0  0  0  0  0  0  0  0
   14.5053    1.1252    0.0000 C   0  0  0  0  0  0  0  0  0  0  0  0
   14.7213    0.3289    0.0000 C   0  0  0  0  0  0  0  0  0  0  0  0
   12.3287    0.9622    0.0000 N   0  0  0  0  0  0  0  0  0  0  0  0
   11.6381    0.5107    0.0000 C   0  0  0  0  0  0  0  0  0  0  0  0
   12.4552    1.7774    0.0000 C   0  0  0  0  0  0  0  0  0  0  0  0
   13.0948    2.2986    0.0000 O   0  0  0  0  0  0  0  0  0  0  0  0
   11.8125    2.2946    0.0000 C   0  0  3  0  0  0  0  0  0  0  0  0
   11.9391    3.1099    0.0000 C   0  0  0  0  0  0  0  0  0  0  0  0
   12.7083    3.4079    0.0000 C   0  0  0  0  0  0  0  0  0  0  0  0
   12.8349    4.2231    0.0000 O   0  0  0  0  0  0  0  0  0  0  0  0
   13.3511    2.8907    0.0000 O   0  0  0  0  0  0  0  0  0  0  0  0
   14.1204    3.1887    0.0000 C   0  0  0  0  0  0  0  0  0  0  0  0
   14.7631    2.6714    0.0000 C   0  0  0  0  0  0  0  0  0  0  0  0
   15.5324    2.9695    0.0000 C   0  0  0  0  0  0  0  0  0  0  0  0
   16.3017    3.2675    0.0000 C   0  0  0  0  0  0  0  0  0  0  0  0
   15.2344    3.7387    0.0000 C   0  0  0  0  0  0  0  0  0  0  0  0
   15.8304    2.2002    0.0000 C   0  0  0  0  0  0  0  0  0  0  0  0
   11.0432    1.9966    0.0000 N   0  0  0  0  0  0  0  0  0  0  0  0
   10.7499    1.2255    0.0000 C   0  0  0  0  0  0  0  0  0  0  0  0
   10.6664    2.7305    0.0000 C   0  0  0  0  0  0  0  0  0  0  0  0
   11.1136    3.4238    0.0000 O   0  0  0  0  0  0  0  0  0  0  0  0
    9.8424    2.7712    0.0000 C   0  0  3  0  0  0  0  0  0  0  0  0
    9.3952    2.0779    0.0000 N   0  0  0  0  0  0  0  0  0  0  0  0
    8.6590    2.4502    0.0000 C   0  0  0  0  0  0  0  0  0  0  0  0
    8.6133    3.2739    0.0000 O   0  0  0  0  0  0  0  0  0  0  0  0
    7.9685    1.9988    0.0000 C   0  0  3  0  0  0  0  0  0  0  0  0
    7.2322    2.3711    0.0000 C   0  0  0  0  0  0  0  0  0  0  0  0
    6.5417    1.9196    0.0000 C   0  0  0  0  0  0  0  0  0  0  0  0
    7.1865    3.1948    0.0000 C   0  0  0  0  0  0  0  0  0  0  0  0
    8.0142    1.1750    0.0000 N   0  0  0  0  0  0  0  0  0  0  0  0
    8.6569    0.6578    0.0000 C   0  0  0  0  0  0  0  0  0  0  0  0
    7.1997    1.0435    0.0000 C   0  0  0  0  0  0  0  0  0  0  0  0
    6.5064    1.4907    0.0000 O   0  0  0  0  0  0  0  0  0  0  0  0
    6.9064    0.2724    0.0000 C   0  0  3  0  0  0  0  0  0  0  0  0
    6.0920    0.1408    0.0000 C   0  0  0  0  0  0  0  0  0  0  0  0
    5.7987   -0.6303    0.0000 C   0  0  0  0  0  0  0  0  0  0  0  0
    6.3198   -1.2698    0.0000 C   0  0  0  0  0  0  0  0  0  0  0  0
    7.1343   -1.1383    0.0000 C   0  0  0  0  0  0  0  0  0  0  0  0
    7.4276   -0.3672    0.0000 N   0  0  0  0  0  0  0  0  0  0  0  0
    6.8460   -0.9523    0.0000 C   0  0  0  0  0  0  0  0  0  0  0  0
    6.0223   -0.9980    0.0000 O   0  0  0  0  0  0  0  0  0  0  0  0
    7.0620   -1.7486    0.0000 C   0  0  3  0  0  0  0  0  0  0  0  0
    6.4804   -2.3337    0.0000 C   0  0  0  0  0  0  0  0  0  0  0  0
    7.8595   -1.9596    0.0000 O   0  0  0  0  0  0  0  0  0  0  0  0
    7.7329   -2.7749    0.0000 C   0  0  0  0  0  0  0  0  0  0  0  0
    6.9637   -3.0729    0.0000 O   0  0  0  0  0  0  0  0  0  0  0  0
    8.3757   -3.2921    0.0000 C   0  0  3  0  0  0  0  0  0  0  0  0
    8.2491   -4.1073    0.0000 C   0  0  0  0  0  0  0  0  0  0  0  0
    7.4798   -4.4053    0.0000 C   0  0  0  0  0  0  0  0  0  0  0  0
    7.3533   -5.2206    0.0000 C   0  0  0  0  0  0  0  0  0  0  0  0
    6.5840   -5.5186    0.0000 C   0  0  0  0  0  0  0  0  0  0  0  0
    5.9412   -5.0014    0.0000 C   0  0  0  0  0  0  0  0  0  0  0  0
    5.1719   -5.2994    0.0000 O   0  0  0  0  0  0  0  0  0  0  0  0
    5.0454   -6.1146    0.0000 C   0  0  0  0  0  0  0  0  0  0  0  0
    6.0678   -4.1861    0.0000 C   0  0  0  0  0  0  0  0  0  0  0  0
    6.8371   -3.8881    0.0000 C   0  0  0  0  0  0  0  0  0  0  0  0
    9.1450   -2.9941    0.0000 N   0  0  0  0  0  0  0  0  0  0  0  0
    9.5218   -3.7280    0.0000 C   0  0  0  0  0  0  0  0  0  0  0  0
    9.0746   -4.4213    0.0000 O   0  0  0  0  0  0  0  0  0  0  0  0
   10.3458   -3.7687    0.0000 C   0  0  3  0  0  0  0  0  0  0  0  0
   10.7226   -4.5026    0.0000 C   0  0  0  0  0  0  0  0  0  0  0  0
   11.5466   -4.5433    0.0000 C   0  0  0  0  0  0  0  0  0  0  0  0
   10.2754   -5.1959    0.0000 C   0  0  0  0  0  0  0  0  0  0  0  0
   10.7930   -3.0754    0.0000 N   0  0  0  0  0  0  0  0  0  0  0  0
   10.5770   -2.2792    0.0000 C   0  0  0  0  0  0  0  0  0  0  0  0
   11.5292   -3.4477    0.0000 C   0  0  0  0  0  0  0  0  0  0  0  0
   11.8272   -4.2170    0.0000 O   0  0  0  0  0  0  0  0  0  0  0  0
   12.2197   -2.9962    0.0000 C   0  0  0  0  0  0  0  0  0  0  0  0
   12.1740   -2.1725    0.0000 N   0  0  0  0  0  0  0  0  0  0  0  0
   12.9885   -2.0409    0.0000 C   0  0  0  0  0  0  0  0  0  0  0  0
   13.5096   -2.6805    0.0000 O   0  0  0  0  0  0  0  0  0  0  0  0
    9.4656    3.5051    0.0000 C   0  0  0  0  0  0  0  0  0  0  0  0
    8.6945    3.7984    0.0000 C   0  0  0  0  0  0  0  0  0  0  0  0
    9.9128    4.1984    0.0000 C   0  0  0  0  0  0  0  0  0  0  0  0
  1  2  1  0  0  0  0
  2  3  1  0  0  0  0
  3  4  1  0  0  0  0
  3  5  1  0  0  0  0
  5  6  1  0  0  0  0
  5 82  1  0  0  0  0
  6  7  1  0  0  0  0
  6  8  1  0  0  0  0
  8  9  2  0  0  0  0
  8 10  1  0  0  0  0
 10 11  1  0  0  0  0
 10 15  1  0  0  0  0
 11 12  1  0  0  0  0
 11 13  1  0  0  0  0
 13 14  1  0  0  0  0
 15 16  1  0  0  0  0
 15 17  1  0  0  0  0
 17 18  2  0  0  0  0
 17 19  1  0  0  0  0
 19 20  1  0  0  0  0
 19 30  1  0  0  0  0
 20 21  1  0  0  0  0
 21 22  2  0  0  0  0
 21 23  1  0  0  0  0
 23 24  1  0  0  0  0
 24 25  1  0  0  0  0
 25 26  1  0  0  0  0
 26 27  1  0  0  0  0
 26 28  1  0  0  0  0
 26 29  1  0  0  0  0
 30 31  1  0  0  0  0
 30 32  1  0  0  0  0
 32 33  2  0  0  0  0
 32 34  1  0  0  0  0
 34 35  1  0  0  0  0
 34 84  1  0  0  0  0
 35 36  1  0  0  0  0
 36 37  2  0  0  0  0
 36 38  1  0  0  0  0
 38 39  1  0  0  0  0
 38 42  1  0  0  0  0
 39 40  1  0  0  0  0
 39 41  1  0  0  0  0
 42 43  1  0  0  0  0
 42 44  1  0  0  0  0
 44 45  2  0  0  0  0
 44 46  1  0  0  0  0
 46 47  1  0  0  0  0
 46 51  1  0  0  0  0
 47 48  1  0  0  0  0
 48 49  1  0  0  0  0
 49 50  1  0  0  0  0
 50 51  1  0  0  0  0
 51 52  1  0  0  0  0
 52 53  2  0  0  0  0
 52 54  1  0  0  0  0
 54 55  1  0  0  0  0
 54 56  1  0  0  0  0
 56 57  1  0  0  0  0
 57 58  2  0  0  0  0
 57 59  1  0  0  0  0
 59 60  1  0  0  0  0
 59 69  1  0  0  0  0
 60 61  1  0  0  0  0
 61 62  2  0  0  0  0
 61 68  1  0  0  0  0
 62 63  1  0  0  0  0
 63 64  2  0  0  0  0
 64 65  1  0  0  0  0
 64 67  1  0  0  0  0
 65 66  1  0  0  0  0
 67 68  2  0  0  0  0
 69 70  1  0  0  0  0
 70 71  2  0  0  0  0
 70 72  1  0  0  0  0
 72 73  1  0  0  0  0
 72 76  1  0  0  0  0
 73 74  1  0  0  0  0
 73 75  1  0  0  0  0
 76 77  1  0  0  0  0
 76 78  1  0  0  0  0
 78 79  2  0  0  0  0
 78 80  1  0  0  0  0
 80 81  1  0  0  0  0
 81 82  1  0  0  0  0
 82 83  2  0  0  0  0
 84 85  1  0  0  0  0
 84 86  1  0  0  0  0
M  END
$$$$

 OpenBabel12191814062D

 85 87  0  0  0  0  0  0  0  0999 V2000
    2.2182   -8.3120    0.0000 C   0  0  0  0  0  0  0  0  0  0  0  0
    2.3897   -7.5050    0.0000 C   0  0  0  0  0  0  0  0  0  0  0  0
    1.7766   -6.9530    0.0000 C   0  0  3  0  0  0  0  0  0  0  0  0
    1.9482   -6.1460    0.0000 C   0  0  0  0  0  0  0  0  0  0  0  0
    0.9920   -7.2079    0.0000 C   0  0  3  0  0  0  0  0  0  0  0  0
    0.3789   -6.6559    0.0000 N   0  0  0  0  0  0  0  0  0  0  0  0
   -0.4416   -6.7421    0.0000 C   0  0  0  0  0  0  0  0  0  0  0  0
    0.8638   -5.9884    0.0000 C   0  0  0  0  0  0  0  0  0  0  0  0
    1.6708   -5.8169    0.0000 O   0  0  0  0  0  0  0  0  0  0  0  0
    0.5283   -5.2348    0.0000 C   0  0  3  0  0  0  0  0  0  0  0  0
    1.0132   -4.5673    0.0000 C   0  0  3  0  0  0  0  0  0  0  0  0
    0.6776   -3.8136    0.0000 C   0  0  0  0  0  0  0  0  0  0  0  0
    1.8337   -4.6536    0.0000 C   0  0  0  0  0  0  0  0  0  0  0  0
    2.1692   -5.4072    0.0000 C   0  0  0  0  0  0  0  0  0  0  0  0
   -0.2922   -5.1485    0.0000 N   0  0  0  0  0  0  0  0  0  0  0  0
   -0.9053   -5.7006    0.0000 C   0  0  0  0  0  0  0  0  0  0  0  0
   -0.2922   -4.3235    0.0000 C   0  0  0  0  0  0  0  0  0  0  0  0
    0.2598   -3.7104    0.0000 O   0  0  0  0  0  0  0  0  0  0  0  0
   -1.0067   -3.9110    0.0000 C   0  0  3  0  0  0  0  0  0  0  0  0
   -1.0067   -3.0860    0.0000 C   0  0  0  0  0  0  0  0  0  0  0  0
   -0.2922   -2.6735    0.0000 C   0  0  0  0  0  0  0  0  0  0  0  0
   -0.2922   -1.8485    0.0000 O   0  0  0  0  0  0  0  0  0  0  0  0
    0.4223   -3.0860    0.0000 O   0  0  0  0  0  0  0  0  0  0  0  0
    1.1367   -2.6735    0.0000 C   0  0  0  0  0  0  0  0  0  0  0  0
    1.8512   -3.0860    0.0000 C   0  0  0  0  0  0  0  0  0  0  0  0
    2.5657   -2.6735    0.0000 C   0  0  0  0  0  0  0  0  0  0  0  0
    3.2802   -3.0860    0.0000 C   0  0  0  0  0  0  0  0  0  0  0  0
    2.5657   -1.8485    0.0000 C   0  0  0  0  0  0  0  0  0  0  0  0
   -1.7211   -4.3235    0.0000 N   0  0  0  0  0  0  0  0  0  0  0  0
   -1.8927   -5.1305    0.0000 C   0  0  0  0  0  0  0  0  0  0  0  0
   -2.2061   -3.6561    0.0000 C   0  0  0  0  0  0  0  0  0  0  0  0
   -1.8705   -2.9024    0.0000 O   0  0  0  0  0  0  0  0  0  0  0  0
   -3.0265   -3.7423    0.0000 C   0  0  3  0  0  0  0  0  0  0  0  0
   -3.3621   -4.4960    0.0000 N   0  0  0  0  0  0  0  0  0  0  0  0
   -4.1467   -4.2411    0.0000 C   0  0  0  0  0  0  0  0  0  0  0  0
   -4.3183   -3.4341    0.0000 O   0  0  0  0  0  0  0  0  0  0  0  0
   -4.7598   -4.7931    0.0000 C   0  0  3  0  0  0  0  0  0  0  0  0
   -5.5444   -4.5382    0.0000 C   0  0  0  0  0  0  0  0  0  0  0  0
   -6.1575   -5.0902    0.0000 C   0  0  0  0  0  0  0  0  0  0  0  0
   -5.7160   -3.7312    0.0000 C   0  0  0  0  0  0  0  0  0  0  0  0
   -4.5883   -5.6001    0.0000 N   0  0  0  0  0  0  0  0  0  0  0  0
   -3.8738   -6.0126    0.0000 C   0  0  0  0  0  0  0  0  0  0  0  0
   -5.3729   -5.8550    0.0000 C   0  0  0  0  0  0  0  0  0  0  0  0
   -6.1266   -5.5194    0.0000 O   0  0  0  0  0  0  0  0  0  0  0  0
   -5.5444   -6.6620    0.0000 C   0  0  3  0  0  0  0  0  0  0  0  0
   -6.3291   -6.9169    0.0000 C   0  0  0  0  0  0  0  0  0  0  0  0
   -6.5006   -7.7239    0.0000 C   0  0  0  0  0  0  0  0  0  0  0  0
   -5.8875   -8.2759    0.0000 C   0  0  0  0  0  0  0  0  0  0  0  0
   -5.1029   -8.0210    0.0000 C   0  0  0  0  0  0  0  0  0  0  0  0
   -4.9313   -7.2140    0.0000 N   0  0  0  0  0  0  0  0  0  0  0  0
   -5.4163   -7.8814    0.0000 C   0  0  0  0  0  0  0  0  0  0  0  0
   -6.2232   -8.0530    0.0000 O   0  0  0  0  0  0  0  0  0  0  0  0
   -5.0807   -8.6351    0.0000 C   0  0  3  0  0  0  0  0  0  0  0  0
   -5.5656   -9.3026    0.0000 C   0  0  0  0  0  0  0  0  0  0  0  0
   -4.2602   -8.7214    0.0000 O   0  0  0  0  0  0  0  0  0  0  0  0
   -4.2602   -9.5464    0.0000 C   0  0  0  0  0  0  0  0  0  0  0  0
   -4.9747   -9.9589    0.0000 O   0  0  0  0  0  0  0  0  0  0  0  0
   -3.5458   -9.9589    0.0000 C   0  0  3  0  0  0  0  0  0  0  0  0
   -3.5458  -10.7839    0.0000 C   0  0  0  0  0  0  0  0  0  0  0  0
   -4.2602  -11.1964    0.0000 C   0  0  0  0  0  0  0  0  0  0  0  0
   -4.2602  -12.0214    0.0000 C   0  0  0  0  0  0  0  0  0  0  0  0
   -4.9747  -12.4339    0.0000 C   0  0  0  0  0  0  0  0  0  0  0  0
   -5.6892  -12.0214    0.0000 C   0  0  0  0  0  0  0  0  0  0  0  0
   -6.4036  -12.4339    0.0000 O   0  0  0  0  0  0  0  0  0  0  0  0
   -6.4036  -13.2589    0.0000 C   0  0  0  0  0  0  0  0  0  0  0  0
   -5.6892  -11.1964    0.0000 C   0  0  0  0  0  0  0  0  0  0  0  0
   -4.9747  -10.7839    0.0000 C   0  0  0  0  0  0  0  0  0  0  0  0
   -2.8313   -9.5464    0.0000 N   0  0  0  0  0  0  0  0  0  0  0  0
   -2.3464  -10.2138    0.0000 C   0  0  0  0  0  0  0  0  0  0  0  0
   -2.6819  -10.9675    0.0000 O   0  0  0  0  0  0  0  0  0  0  0  0
   -1.5259  -10.1276    0.0000 C   0  0  3  0  0  0  0  0  0  0  0  0
   -1.0410  -10.7950    0.0000 C   0  0  0  0  0  0  0  0  0  0  0  0
   -0.2205  -10.7088    0.0000 C   0  0  0  0  0  0  0  0  0  0  0  0
   -1.3765  -11.5487    0.0000 C   0  0  0  0  0  0  0  0  0  0  0  0
   -1.1903   -9.3739    0.0000 N   0  0  0  0  0  0  0  0  0  0  0  0
   -1.5259   -8.6202    0.0000 C   0  0  0  0  0  0  0  0  0  0  0  0
   -0.4057   -9.6288    0.0000 C   0  0  0  0  0  0  0  0  0  0  0  0
    0.0068  -10.3433    0.0000 O   0  0  0  0  0  0  0  0  0  0  0  0
    0.2074   -9.0768    0.0000 C   0  0  0  0  0  0  0  0  0  0  0  0
    0.0359   -8.2698    0.0000 N   0  0  0  0  0  0  0  0  0  0  0  0
    0.8205   -8.0149    0.0000 C   0  0  0  0  0  0  0  0  0  0  0  0
    1.4336   -8.5669    0.0000 O   0  0  0  0  0  0  0  0  0  0  0  0
   -3.5115   -3.0749    0.0000 C   0  0  0  0  0  0  0  0  0  0  0  0
   -4.3184   -2.9034    0.0000 C   0  0  0  0  0  0  0  0  0  0  0  0
   -3.1759   -2.3212    0.0000 C   0  0  0  0  0  0  0  0  0  0  0  0
  1  2  1  0  0  0  0
  2  3  1  0  0  0  0
  3  4  1  0  0  0  0
  3  5  1  0  0  0  0
  5  6  1  0  0  0  0
  5 81  1  0  0  0  0
  6  7  1  0  0  0  0
  6  8  1  0  0  0  0
  8  9  2  0  0  0  0
  8 10  1  0  0  0  0
 10 11  1  0  0  0  0
 10 15  1  0  0  0  0
 11 12  1  0  0  0  0
 11 13  1  0  0  0  0
 13 14  1  0  0  0  0
 15 16  1  0  0  0  0
 15 17  1  0  0  0  0
 17 18  2  0  0  0  0
 17 19  1  0  0  0  0
 19 20  1  0  0  0  0
 19 29  1  0  0  0  0
 20 21  1  0  0  0  0
 21 22  2  0  0  0  0
 21 23  1  0  0  0  0
 23 24  1  0  0  0  0
 24 25  1  0  0  0  0
 25 26  1  0  0  0  0
 26 27  1  0  0  0  0
 26 28  1  0  0  0  0
 29 30  1  0  0  0  0
 29 31  1  0  0  0  0
 31 32  2  0  0  0  0
 31 33  1  0  0  0  0
 33 34  1  0  0  0  0
 33 83  1  0  0  0  0
 34 35  1  0  0  0  0
 35 36  2  0  0  0  0
 35 37  1  0  0  0  0
 37 38  1  0  0  0  0
 37 41  1  0  0  0  0
 38 39  1  0  0  0  0
 38 40  1  0  0  0  0
 41 42  1  0  0  0  0
 41 43  1  0  0  0  0
 43 44  2  0  0  0  0
 43 45  1  0  0  0  0
 45 46  1  0  0  0  0
 45 50  1  0  0  0  0
 46 47  1  0  0  0  0
 47 48  1  0  0  0  0
 48 49  1  0  0  0  0
 49 50  1  0  0  0  0
 50 51  1  0  0  0  0
 51 52  2  0  0  0  0
 51 53  1  0  0  0  0
 53 54  1  0  0  0  0
 53 55  1  0  0  0  0
 55 56  1  0  0  0  0
 56 57  2  0  0  0  0
 56 58  1  0  0  0  0
 58 59  1  0  0  0  0
 58 68  1  0  0  0  0
 59 60  1  0  0  0  0
 60 61  2  0  0  0  0
 60 67  1  0  0  0  0
 61 62  1  0  0  0  0
 62 63  2  0  0  0  0
 63 64  1  0  0  0  0
 63 66  1  0  0  0  0
 64 65  1  0  0  0  0
 66 67  2  0  0  0  0
 68 69  1  0  0  0  0
 69 70  2  0  0  0  0
 69 71  1  0  0  0  0
 71 72  1  0  0  0  0
 71 75  1  0  0  0  0
 72 73  1  0  0  0  0
 72 74  1  0  0  0  0
 75 76  1  0  0  0  0
 75 77  1  0  0  0  0
 77 78  2  0  0  0  0
 77 79  1  0  0  0  0
 79 80  1  0  0  0  0
 80 81  1  0  0  0  0
 81 82  2  0  0  0  0
 83 84  1  0  0  0  0
 83 85  1  0  0  0  0
M  END
$$$$

 OpenBabel12191814062D

 86 88  0  0  0  0  0  0  0  0999 V2000
   14.3241   -2.5489    0.0000 C   0  0  0  0  0  0  0  0  0  0  0  0
   14.6173   -1.7778    0.0000 C   0  0  0  0  0  0  0  0  0  0  0  0
   14.0962   -1.1383    0.0000 C   0  0  3  0  0  0  0  0  0  0  0  0
   14.3895   -0.3672    0.0000 C   0  0  0  0  0  0  0  0  0  0  0  0
   13.2818   -1.2698    0.0000 C   0  0  3  0  0  0  0  0  0  0  0  0
   12.7606   -0.6303    0.0000 N   0  0  0  0  0  0  0  0  0  0  0  0
   11.9366   -0.5896    0.0000 C   0  0  0  0  0  0  0  0  0  0  0  0
   13.3422   -0.0451    0.0000 C   0  0  0  0  0  0  0  0  0  0  0  0
   14.1659    0.0006    0.0000 O   0  0  0  0  0  0  0  0  0  0  0  0
   13.1262    0.7511    0.0000 C   0  0  3  0  0  0  0  0  0  0  0  0
   13.7078    1.3362    0.0000 C   0  0  3  0  0  0  0  0  0  0  0  0
   13.4918    2.1325    0.0000 C   0  0  0  0  0  0  0  0  0  0  0  0
   14.5053    1.1252    0.0000 C   0  0  0  0  0  0  0  0  0  0  0  0
   14.7213    0.3289    0.0000 C   0  0  0  0  0  0  0  0  0  0  0  0
   12.3287    0.9622    0.0000 N   0  0  0  0  0  0  0  0  0  0  0  0
   11.6381    0.5107    0.0000 C   0  0  0  0  0  0  0  0  0  0  0  0
   12.4552    1.7774    0.0000 C   0  0  0  0  0  0  0  0  0  0  0  0
   13.0948    2.2986    0.0000 O   0  0  0  0  0  0  0  0  0  0  0  0
   11.8125    2.2946    0.0000 C   0  0  3  0  0  0  0  0  0  0  0  0
   11.9391    3.1099    0.0000 C   0  0  0  0  0  0  0  0  0  0  0  0
   12.7083    3.4079    0.0000 C   0  0  0  0  0  0  0  0  0  0  0  0
   13.3511    2.8907    0.0000 C   0  0  0  0  0  0  0  0  0  0  0  0
   14.1204    3.1887    0.0000 C   0  0  0  0  0  0  0  0  0  0  0  0
   14.2469    4.0039    0.0000 O   0  0  0  0  0  0  0  0  0  0  0  0
   14.7631    2.6714    0.0000 O   0  0  0  0  0  0  0  0  0  0  0  0
   15.5324    2.9695    0.0000 C   0  0  0  0  0  0  0  0  0  0  0  0
   16.3017    3.2675    0.0000 C   0  0  0  0  0  0  0  0  0  0  0  0
   15.2344    3.7387    0.0000 C   0  0  0  0  0  0  0  0  0  0  0  0
   15.8304    2.2002    0.0000 C   0  0  0  0  0  0  0  0  0  0  0  0
   11.0432    1.9966    0.0000 N   0  0  0  0  0  0  0  0  0  0  0  0
   10.7499    1.2255    0.0000 C   0  0  0  0  0  0  0  0  0  0  0  0
   10.6664    2.7305    0.0000 C   0  0  0  0  0  0  0  0  0  0  0  0
   11.1136    3.4238    0.0000 O   0  0  0  0  0  0  0  0  0  0  0  0
    9.8424    2.7712    0.0000 C   0  0  3  0  0  0  0  0  0  0  0  0
    9.3952    2.0779    0.0000 N   0  0  0  0  0  0  0  0  0  0  0  0
    8.6590    2.4502    0.0000 C   0  0  0  0  0  0  0  0  0  0  0  0
    8.6133    3.2739    0.0000 O   0  0  0  0  0  0  0  0  0  0  0  0
    7.9685    1.9988    0.0000 C   0  0  3  0  0  0  0  0  0  0  0  0
    7.2322    2.3711    0.0000 C   0  0  0  0  0  0  0  0  0  0  0  0
    6.5417    1.9196    0.0000 C   0  0  0  0  0  0  0  0  0  0  0  0
    7.1865    3.1948    0.0000 C   0  0  0  0  0  0  0  0  0  0  0  0
    8.0142    1.1750    0.0000 N   0  0  0  0  0  0  0  0  0  0  0  0
    8.6569    0.6578    0.0000 C   0  0  0  0  0  0  0  0  0  0  0  0
    7.1997    1.0435    0.0000 C   0  0  0  0  0  0  0  0  0  0  0  0
    6.5064    1.4907    0.0000 O   0  0  0  0  0  0  0  0  0  0  0  0
    6.9064    0.2724    0.0000 C   0  0  3  0  0  0  0  0  0  0  0  0
    6.0920    0.1408    0.0000 C   0  0  0  0  0  0  0  0  0  0  0  0
    5.7987   -0.6303    0.0000 C   0  0  0  0  0  0  0  0  0  0  0  0
    6.3198   -1.2698    0.0000 C   0  0  0  0  0  0  0  0  0  0  0  0
    7.1343   -1.1383    0.0000 C   0  0  0  0  0  0  0  0  0  0  0  0
    7.4276   -0.3672    0.0000 N   0  0  0  0  0  0  0  0  0  0  0  0
    6.8460   -0.9523    0.0000 C   0  0  0  0  0  0  0  0  0  0  0  0
    6.0223   -0.9980    0.0000 O   0  0  0  0  0  0  0  0  0  0  0  0
    7.0620   -1.7486    0.0000 C   0  0  3  0  0  0  0  0  0  0  0  0
    6.4804   -2.3337    0.0000 C   0  0  0  0  0  0  0  0  0  0  0  0
    7.8595   -1.9596    0.0000 O   0  0  0  0  0  0  0  0  0  0  0  0
    7.7329   -2.7749    0.0000 C   0  0  0  0  0  0  0  0  0  0  0  0
    6.9637   -3.0729    0.0000 O   0  0  0  0  0  0  0  0  0  0  0  0
    8.3757   -3.2921    0.0000 C   0  0  3  0  0  0  0  0  0  0  0  0
    8.2491   -4.1073    0.0000 C   0  0  0  0  0  0  0  0  0  0  0  0
    7.4798   -4.4053    0.0000 C   0  0  0  0  0  0  0  0  0  0  0  0
    7.3533   -5.2206    0.0000 C   0  0  0  0  0  0  0  0  0  0  0  0
    6.5840   -5.5186    0.0000 C   0  0  0  0  0  0  0  0  0  0  0  0
    5.9412   -5.0014    0.0000 C   0  0  0  0  0  0  0  0  0  0  0  0
    5.1719   -5.2994    0.0000 O   0  0  0  0  0  0  0  0  0  0  0  0
    5.0454   -6.1146    0.0000 C   0  0  0  0  0  0  0  0  0  0  0  0
    6.0678   -4.1861    0.0000 C   0  0  0  0  0  0  0  0  0  0  0  0
    6.8371   -3.8881    0.0000 C   0  0  0  0  0  0  0  0  0  0  0  0
    9.1450   -2.9941    0.0000 N   0  0  0  0  0  0  0  0  0  0  0  0
    9.5218   -3.7280    0.0000 C   0  0  0  0  0  0  0  0  0  0  0  0
    9.0746   -4.4213    0.0000 O   0  0  0  0  0  0  0  0  0  0  0  0
   10.3458   -3.7687    0.0000 C   0  0  3  0  0  0  0  0  0  0  0  0
   10.7226   -4.5026    0.0000 C   0  0  0  0  0  0  0  0  0  0  0  0
   11.5466   -4.5433    0.0000 C   0  0  0  0  0  0  0  0  0  0  0  0
   10.2754   -5.1959    0.0000 C   0  0  0  0  0  0  0  0  0  0  0  0
   10.7930   -3.0754    0.0000 N   0  0  0  0  0  0  0  0  0  0  0  0
   10.5770   -2.2792    0.0000 C   0  0  0  0  0  0  0  0  0  0  0  0
   11.5292   -3.4477    0.0000 C   0  0  0  0  0  0  0  0  0  0  0  0
   11.8272   -4.2170    0.0000 O   0  0  0  0  0  0  0  0  0  0  0  0
   12.2197   -2.9962    0.0000 C   0  0  0  0  0  0  0  0  0  0  0  0
   12.1740   -2.1725    0.0000 N   0  0  0  0  0  0  0  0  0  0  0  0
   12.9885   -2.0409    0.0000 C   0  0  0  0  0  0  0  0  0  0  0  0
   13.5096   -2.6805    0.0000 O   0  0  0  0  0  0  0  0  0  0  0  0
    9.4656    3.5051    0.0000 C   0  0  0  0  0  0  0  0  0  0  0  0
    8.6945    3.7984    0.0000 C   0  0  0  0  0  0  0  0  0  0  0  0
    9.9128    4.1984    0.0000 C   0  0  0  0  0  0  0  0  0  0  0  0
  1  2  1  0  0  0  0
  2  3  1  0  0  0  0
  3  4  1  0  0  0  0
  3  5  1  0  0  0  0
  5  6  1  0  0  0  0
  5 82  1  0  0  0  0
  6  7  1  0  0  0  0
  6  8  1  0  0  0  0
  8  9  2  0  0  0  0
  8 10  1  0  0  0  0
 10 11  1  0  0  0  0
 10 15  1  0  0  0  0
 11 12  1  0  0  0  0
 11 13  1  0  0  0  0
 13 14  1  0  0  0  0
 15 16  1  0  0  0  0
 15 17  1  0  0  0  0
 17 18  2  0  0  0  0
 17 19  1  0  0  0  0
 19 20  1  0  0  0  0
 19 30  1  0  0  0  0
 20 21  1  0  0  0  0
 21 22  1  0  0  0  0
 22 23  1  0  0  0  0
 23 24  2  0  0  0  0
 23 25  1  0  0  0  0
 25 26  1  0  0  0  0
 26 27  1  0  0  0  0
 26 28  1  0  0  0  0
 26 29  1  0  0  0  0
 30 31  1  0  0  0  0
 30 32  1  0  0  0  0
 32 33  2  0  0  0  0
 32 34  1  0  0  0  0
 34 35  1  0  0  0  0
 34 84  1  0  0  0  0
 35 36  1  0  0  0  0
 36 37  2  0  0  0  0
 36 38  1  0  0  0  0
 38 39  1  0  0  0  0
 38 42  1  0  0  0  0
 39 40  1  0  0  0  0
 39 41  1  0  0  0  0
 42 43  1  0  0  0  0
 42 44  1  0  0  0  0
 44 45  2  0  0  0  0
 44 46  1  0  0  0  0
 46 47  1  0  0  0  0
 46 51  1  0  0  0  0
 47 48  1  0  0  0  0
 48 49  1  0  0  0  0
 49 50  1  0  0  0  0
 50 51  1  0  0  0  0
 51 52  1  0  0  0  0
 52 53  2  0  0  0  0
 52 54  1  0  0  0  0
 54 55  1  0  0  0  0
 54 56  1  0  0  0  0
 56 57  1  0  0  0  0
 57 58  2  0  0  0  0
 57 59  1  0  0  0  0
 59 60  1  0  0  0  0
 59 69  1  0  0  0  0
 60 61  1  0  0  0  0
 61 62  2  0  0  0  0
 61 68  1  0  0  0  0
 62 63  1  0  0  0  0
 63 64  2  0  0  0  0
 64 65  1  0  0  0  0
 64 67  1  0  0  0  0
 65 66  1  0  0  0  0
 67 68  2  0  0  0  0
 69 70  1  0  0  0  0
 70 71  2  0  0  0  0
 70 72  1  0  0  0  0
 72 73  1  0  0  0  0
 72 76  1  0  0  0  0
 73 74  1  0  0  0  0
 73 75  1  0  0  0  0
 76 77  1  0  0  0  0
 76 78  1  0  0  0  0
 78 79  2  0  0  0  0
 78 80  1  0  0  0  0
 80 81  1  0  0  0  0
 81 82  1  0  0  0  0
 82 83  2  0  0  0  0
 84 85  1  0  0  0  0
 84 86  1  0  0  0  0
M  END
$$$$

 OpenBabel12191814062D

 82 84  0  0  0  0  0  0  0  0999 V2000
    2.2182   -8.3120    0.0000 C   0  0  0  0  0  0  0  0  0  0  0  0
    2.3897   -7.5050    0.0000 C   0  0  0  0  0  0  0  0  0  0  0  0
    1.7766   -6.9530    0.0000 C   0  0  3  0  0  0  0  0  0  0  0  0
    1.9482   -6.1460    0.0000 C   0  0  0  0  0  0  0  0  0  0  0  0
    0.9920   -7.2079    0.0000 C   0  0  3  0  0  0  0  0  0  0  0  0
    0.3789   -6.6559    0.0000 N   0  0  0  0  0  0  0  0  0  0  0  0
   -0.4416   -6.7421    0.0000 C   0  0  0  0  0  0  0  0  0  0  0  0
    0.8638   -5.9884    0.0000 C   0  0  0  0  0  0  0  0  0  0  0  0
    1.6708   -5.8169    0.0000 O   0  0  0  0  0  0  0  0  0  0  0  0
    0.5283   -5.2348    0.0000 C   0  0  3  0  0  0  0  0  0  0  0  0
    1.0132   -4.5673    0.0000 C   0  0  3  0  0  0  0  0  0  0  0  0
    0.6776   -3.8136    0.0000 C   0  0  0  0  0  0  0  0  0  0  0  0
    1.8337   -4.6536    0.0000 C   0  0  0  0  0  0  0  0  0  0  0  0
    2.1692   -5.4072    0.0000 C   0  0  0  0  0  0  0  0  0  0  0  0
   -0.2922   -5.1485    0.0000 N   0  0  0  0  0  0  0  0  0  0  0  0
   -0.9053   -5.7006    0.0000 C   0  0  0  0  0  0  0  0  0  0  0  0
   -0.2922   -4.3235    0.0000 C   0  0  0  0  0  0  0  0  0  0  0  0
    0.2598   -3.7104    0.0000 O   0  0  0  0  0  0  0  0  0  0  0  0
   -1.0067   -3.9110    0.0000 C   0  0  3  0  0  0  0  0  0  0  0  0
   -1.0067   -3.0860    0.0000 C   0  0  0  0  0  0  0  0  0  0  0  0
   -0.2922   -2.6735    0.0000 C   0  0  0  0  0  0  0  0  0  0  0  0
    0.4223   -3.0860    0.0000 O   0  0  0  0  0  0  0  0  0  0  0  0
    1.1367   -2.6735    0.0000 C   0  0  0  0  0  0  0  0  0  0  0  0
    1.8512   -3.0860    0.0000 C   0  0  0  0  0  0  0  0  0  0  0  0
    1.1367   -1.8485    0.0000 O   0  0  0  0  0  0  0  0  0  0  0  0
   -1.7211   -4.3235    0.0000 N   0  0  0  0  0  0  0  0  0  0  0  0
   -1.8927   -5.1305    0.0000 C   0  0  0  0  0  0  0  0  0  0  0  0
   -2.2061   -3.6561    0.0000 C   0  0  0  0  0  0  0  0  0  0  0  0
   -1.8705   -2.9024    0.0000 O   0  0  0  0  0  0  0  0  0  0  0  0
   -3.0265   -3.7423    0.0000 C   0  0  3  0  0  0  0  0  0  0  0  0
   -3.3621   -4.4960    0.0000 N   0  0  0  0  0  0  0  0  0  0  0  0
   -4.1467   -4.2411    0.0000 C   0  0  0  0  0  0  0  0  0  0  0  0
   -4.3183   -3.4341    0.0000 O   0  0  0  0  0  0  0  0  0  0  0  0
   -4.7598   -4.7931    0.0000 C   0  0  3  0  0  0  0  0  0  0  0  0
   -5.5444   -4.5382    0.0000 C   0  0  0  0  0  0  0  0  0  0  0  0
   -6.1575   -5.0902    0.0000 C   0  0  0  0  0  0  0  0  0  0  0  0
   -5.7160   -3.7312    0.0000 C   0  0  0  0  0  0  0  0  0  0  0  0
   -4.5883   -5.6001    0.0000 N   0  0  0  0  0  0  0  0  0  0  0  0
   -3.8738   -6.0126    0.0000 C   0  0  0  0  0  0  0  0  0  0  0  0
   -5.3729   -5.8550    0.0000 C   0  0  0  0  0  0  0  0  0  0  0  0
   -6.1266   -5.5194    0.0000 O   0  0  0  0  0  0  0  0  0  0  0  0
   -5.5444   -6.6620    0.0000 C   0  0  3  0  0  0  0  0  0  0  0  0
   -6.3291   -6.9169    0.0000 C   0  0  0  0  0  0  0  0  0  0  0  0
   -6.5006   -7.7239    0.0000 C   0  0  0  0  0  0  0  0  0  0  0  0
   -5.8875   -8.2759    0.0000 C   0  0  0  0  0  0  0  0  0  0  0  0
   -5.1029   -8.0210    0.0000 C   0  0  0  0  0  0  0  0  0  0  0  0
   -4.9313   -7.2140    0.0000 N   0  0  0  0  0  0  0  0  0  0  0  0
   -5.4163   -7.8814    0.0000 C   0  0  0  0  0  0  0  0  0  0  0  0
   -6.2232   -8.0530    0.0000 O   0  0  0  0  0  0  0  0  0  0  0  0
   -5.0807   -8.6351    0.0000 C   0  0  3  0  0  0  0  0  0  0  0  0
   -5.5656   -9.3026    0.0000 C   0  0  0  0  0  0  0  0  0  0  0  0
   -4.2602   -8.7214    0.0000 O   0  0  0  0  0  0  0  0  0  0  0  0
   -4.2602   -9.5464    0.0000 C   0  0  0  0  0  0  0  0  0  0  0  0
   -4.9747   -9.9589    0.0000 O   0  0  0  0  0  0  0  0  0  0  0  0
   -3.5458   -9.9589    0.0000 C   0  0  3  0  0  0  0  0  0  0  0  0
   -3.5458  -10.7839    0.0000 C   0  0  0  0  0  0  0  0  0  0  0  0
   -4.2602  -11.1964    0.0000 C   0  0  0  0  0  0  0  0  0  0  0  0
   -4.2602  -12.0214    0.0000 C   0  0  0  0  0  0  0  0  0  0  0  0
   -4.9747  -12.4339    0.0000 C   0  0  0  0  0  0  0  0  0  0  0  0
   -5.6892  -12.0214    0.0000 C   0  0  0  0  0  0  0  0  0  0  0  0
   -6.4036  -12.4339    0.0000 O   0  0  0  0  0  0  0  0  0  0  0  0
   -6.4036  -13.2589    0.0000 C   0  0  0  0  0  0  0  0  0  0  0  0
   -5.6892  -11.1964    0.0000 C   0  0  0  0  0  0  0  0  0  0  0  0
   -4.9747  -10.7839    0.0000 C   0  0  0  0  0  0  0  0  0  0  0  0
   -2.8313   -9.5464    0.0000 N   0  0  0  0  0  0  0  0  0  0  0  0
   -2.3464  -10.2138    0.0000 C   0  0  0  0  0  0  0  0  0  0  0  0
   -2.6819  -10.9675    0.0000 O   0  0  0  0  0  0  0  0  0  0  0  0
   -1.5259  -10.1276    0.0000 C   0  0  3  0  0  0  0  0  0  0  0  0
   -1.0410  -10.7950    0.0000 C   0  0  0  0  0  0  0  0  0  0  0  0
   -0.2205  -10.7088    0.0000 C   0  0  0  0  0  0  0  0  0  0  0  0
   -1.3765  -11.5487    0.0000 C   0  0  0  0  0  0  0  0  0  0  0  0
   -1.1903   -9.3739    0.0000 N   0  0  0  0  0  0  0  0  0  0  0  0
   -1.5259   -8.6202    0.0000 C   0  0  0  0  0  0  0  0  0  0  0  0
   -0.4057   -9.6288    0.0000 C   0  0  0  0  0  0  0  0  0  0  0  0
    0.0068  -10.3433    0.0000 O   0  0  0  0  0  0  0  0  0  0  0  0
    0.2074   -9.0768    0.0000 C   0  0  0  0  0  0  0  0  0  0  0  0
    0.0359   -8.2698    0.0000 N   0  0  0  0  0  0  0  0  0  0  0  0
    0.8205   -8.0149    0.0000 C   0  0  0  0  0  0  0  0  0  0  0  0
    1.4336   -8.5669    0.0000 O   0  0  0  0  0  0  0  0  0  0  0  0
   -3.5115   -3.0749    0.0000 C   0  0  0  0  0  0  0  0  0  0  0  0
   -4.3184   -2.9034    0.0000 C   0  0  0  0  0  0  0  0  0  0  0  0
   -3.1759   -2.3212    0.0000 C   0  0  0  0  0  0  0  0  0  0  0  0
  1  2  1  0  0  0  0
  2  3  1  0  0  0  0
  3  4  1  0  0  0  0
  3  5  1  0  0  0  0
  5  6  1  0  0  0  0
  5 78  1  0  0  0  0
  6  7  1  0  0  0  0
  6  8  1  0  0  0  0
  8  9  2  0  0  0  0
  8 10  1  0  0  0  0
 10 11  1  0  0  0  0
 10 15  1  0  0  0  0
 11 12  1  0  0  0  0
 11 13  1  0  0  0  0
 13 14  1  0  0  0  0
 15 16  1  0  0  0  0
 15 17  1  0  0  0  0
 17 18  2  0  0  0  0
 17 19  1  0  0  0  0
 19 20  1  0  0  0  0
 19 26  1  0  0  0  0
 20 21  1  0  0  0  0
 21 22  1  0  0  0  0
 22 23  1  0  0  0  0
 23 24  1  0  0  0  0
 23 25  2  0  0  0  0
 26 27  1  0  0  0  0
 26 28  1  0  0  0  0
 28 29  2  0  0  0  0
 28 30  1  0  0  0  0
 30 31  1  0  0  0  0
 30 80  1  0  0  0  0
 31 32  1  0  0  0  0
 32 33  2  0  0  0  0
 32 34  1  0  0  0  0
 34 35  1  0  0  0  0
 34 38  1  0  0  0  0
 35 36  1  0  0  0  0
 35 37  1  0  0  0  0
 38 39  1  0  0  0  0
 38 40  1  0  0  0  0
 40 41  2  0  0  0  0
 40 42  1  0  0  0  0
 42 43  1  0  0  0  0
 42 47  1  0  0  0  0
 43 44  1  0  0  0  0
 44 45  1  0  0  0  0
 45 46  1  0  0  0  0
 46 47  1  0  0  0  0
 47 48  1  0  0  0  0
 48 49  2  0  0  0  0
 48 50  1  0  0  0  0
 50 51  1  0  0  0  0
 50 52  1  0  0  0  0
 52 53  1  0  0  0  0
 53 54  2  0  0  0  0
 53 55  1  0  0  0  0
 55 56  1  0  0  0  0
 55 65  1  0  0  0  0
 56 57  1  0  0  0  0
 57 58  2  0  0  0  0
 57 64  1  0  0  0  0
 58 59  1  0  0  0  0
 59 60  2  0  0  0  0
 60 61  1  0  0  0  0
 60 63  1  0  0  0  0
 61 62  1  0  0  0  0
 63 64  2  0  0  0  0
 65 66  1  0  0  0  0
 66 67  2  0  0  0  0
 66 68  1  0  0  0  0
 68 69  1  0  0  0  0
 68 72  1  0  0  0  0
 69 70  1  0  0  0  0
 69 71  1  0  0  0  0
 72 73  1  0  0  0  0
 72 74  1  0  0  0  0
 74 75  2  0  0  0  0
 74 76  1  0  0  0  0
 76 77  1  0  0  0  0
 77 78  1  0  0  0  0
 78 79  2  0  0  0  0
 80 81  1  0  0  0  0
 80 82  1  0  0  0  0
M  END
$$$$

 OpenBabel12191814062D

 87 87  0  0  0  0  0  0  0  0999 V2000
   -0.4196    3.4374    0.0000 C   0  0  0  0  0  0  0  0  0  0  0  0
   -0.8657    2.7433    0.0000 C   0  0  0  0  0  0  0  0  0  0  0  0
   -0.4876    2.0100    0.0000 C   0  0  3  0  0  0  0  0  0  0  0  0
   -0.9337    1.3160    0.0000 C   0  0  0  0  0  0  0  0  0  0  0  0
    0.3364    1.9708    0.0000 C   0  0  3  0  0  0  0  0  0  0  0  0
    0.7145    1.2375    0.0000 N   0  0  0  0  0  0  0  0  0  0  0  0
    1.5061    1.0051    0.0000 C   0  0  0  0  0  0  0  0  0  0  0  0
    0.0000    0.8250    0.0000 C   0  0  0  0  0  0  0  0  0  0  0  0
   -0.8070    0.9965    0.0000 O   0  0  0  0  0  0  0  0  0  0  0  0
    0.0000    0.0000    0.0000 C   0  0  3  0  0  0  0  0  0  0  0  0
   -0.7145   -0.4125    0.0000 C   0  0  0  0  0  0  0  0  0  0  0  0
   -1.4289    0.0000    0.0000 C   0  0  0  0  0  0  0  0  0  0  0  0
   -2.1434   -0.4125    0.0000 C   0  0  0  0  0  0  0  0  0  0  0  0
   -1.4289    0.8250    0.0000 C   0  0  0  0  0  0  0  0  0  0  0  0
    0.7145   -0.4125    0.0000 N   0  0  0  0  0  0  0  0  0  0  0  0
    1.5061   -0.1801    0.0000 C   0  0  0  0  0  0  0  0  0  0  0  0
    0.3364   -1.1458    0.0000 C   0  0  0  0  0  0  0  0  0  0  0  0
   -0.4876   -1.1850    0.0000 O   0  0  0  0  0  0  0  0  0  0  0  0
    0.7825   -1.8398    0.0000 C   0  0  3  0  0  0  0  0  0  0  0  0
    0.4044   -2.5731    0.0000 C   0  0  0  0  0  0  0  0  0  0  0  0
   -0.4196   -2.6124    0.0000 C   0  0  0  0  0  0  0  0  0  0  0  0
   -0.7977   -3.3457    0.0000 C   0  0  0  0  0  0  0  0  0  0  0  0
   -0.8657   -1.9183    0.0000 C   0  0  0  0  0  0  0  0  0  0  0  0
    1.6065   -1.8006    0.0000 N   0  0  0  0  0  0  0  0  0  0  0  0
    2.1468   -1.1771    0.0000 C   0  0  0  0  0  0  0  0  0  0  0  0
    1.6849   -2.6218    0.0000 C   0  0  0  0  0  0  0  0  0  0  0  0
    1.0129   -3.1004    0.0000 O   0  0  0  0  0  0  0  0  0  0  0  0
    2.4354   -2.9646    0.0000 C   0  0  3  0  0  0  0  0  0  0  0  0
    2.5138   -3.7858    0.0000 C   0  0  0  0  0  0  0  0  0  0  0  0
    3.1074   -2.4860    0.0000 N   0  0  0  0  0  0  0  0  0  0  0  0
    3.6174   -3.1345    0.0000 C   0  0  0  0  0  0  0  0  0  0  0  0
    3.3108   -3.9004    0.0000 O   0  0  0  0  0  0  0  0  0  0  0  0
    4.4340   -3.0171    0.0000 C   0  0  3  0  0  0  0  0  0  0  0  0
    4.9440   -3.6656    0.0000 C   0  0  0  0  0  0  0  0  0  0  0  0
    4.7406   -2.2512    0.0000 N   0  0  0  0  0  0  0  0  0  0  0  0
    5.5203   -2.5210    0.0000 C   0  0  0  0  0  0  0  0  0  0  0  0
    5.6764   -3.3311    0.0000 O   0  0  0  0  0  0  0  0  0  0  0  0
    6.1437   -1.9808    0.0000 C   0  0  3  0  0  0  0  0  0  0  0  0
    6.9234   -2.2506    0.0000 C   0  0  0  0  0  0  0  0  0  0  0  0
    7.0795   -3.0607    0.0000 C   0  0  0  0  0  0  0  0  0  0  0  0
    7.8591   -3.3305    0.0000 C   0  0  0  0  0  0  0  0  0  0  0  0
    6.4560   -3.6009    0.0000 C   0  0  0  0  0  0  0  0  0  0  0  0
    5.9876   -1.1707    0.0000 N   0  0  0  0  0  0  0  0  0  0  0  0
    5.2936   -0.7246    0.0000 C   0  0  0  0  0  0  0  0  0  0  0  0
    6.7894   -0.9762    0.0000 C   0  0  0  0  0  0  0  0  0  0  0  0
    7.3587   -1.5732    0.0000 O   0  0  0  0  0  0  0  0  0  0  0  0
    7.0218   -0.1846    0.0000 C   0  0  3  0  0  0  0  0  0  0  0  0
    6.4525    0.4125    0.0000 N   0  0  0  0  0  0  0  0  0  0  0  0
    7.0218    1.0096    0.0000 C   0  0  0  0  0  0  0  0  0  0  0  0
    7.8235    0.8151    0.0000 O   0  0  0  0  0  0  0  0  0  0  0  0
    6.7894    1.8012    0.0000 C   0  0  3  0  0  0  0  0  0  0  0  0
    7.3587    2.3982    0.0000 C   0  0  0  0  0  0  0  0  0  0  0  0
    8.1604    2.2037    0.0000 C   0  0  0  0  0  0  0  0  0  0  0  0
    8.7297    2.8008    0.0000 C   0  0  0  0  0  0  0  0  0  0  0  0
    8.3928    1.4122    0.0000 C   0  0  0  0  0  0  0  0  0  0  0  0
    5.9876    1.9957    0.0000 N   0  0  0  0  0  0  0  0  0  0  0  0
    5.2936    1.5496    0.0000 C   0  0  0  0  0  0  0  0  0  0  0  0
    6.1437    2.8058    0.0000 C   0  0  0  0  0  0  0  0  0  0  0  0
    6.9234    3.0756    0.0000 O   0  0  0  0  0  0  0  0  0  0  0  0
    5.5203    3.3460    0.0000 C   0  0  0  0  0  0  0  0  0  0  0  0
    4.7406    3.0762    0.0000 N   0  0  0  0  0  0  0  0  0  0  0  0
    4.3979    2.3257    0.0000 C   0  0  0  0  0  0  0  0  0  0  0  0
    4.4340    3.8421    0.0000 C   0  0  0  0  0  0  0  0  0  0  0  0
    4.9440    4.4906    0.0000 O   0  0  0  0  0  0  0  0  0  0  0  0
    3.6174    3.9595    0.0000 C   0  0  3  0  0  0  0  0  0  0  0  0
    3.1074    3.3110    0.0000 N   0  0  0  0  0  0  0  0  0  0  0  0
    2.4354    3.7896    0.0000 C   0  0  0  0  0  0  0  0  0  0  0  0
    2.5138    4.6108    0.0000 O   0  0  0  0  0  0  0  0  0  0  0  0
    1.6849    3.4468    0.0000 C   0  0  3  0  0  0  0  0  0  0  0  0
    1.0129    3.9254    0.0000 C   0  0  3  0  0  0  0  0  0  0  0  0
    0.2625    3.5827    0.0000 O   0  0  0  0  0  0  0  0  0  0  0  0
    1.0913    4.7466    0.0000 C   0  0  3  0  0  0  0  0  0  0  0  0
    0.4193    5.2252    0.0000 C   0  0  0  0  0  0  0  0  0  0  0  0
    1.8418    5.0894    0.0000 C   0  0  0  0  0  0  0  0  0  0  0  0
    1.9202    5.9106    0.0000 C   0  0  0  0  0  0  0  0  0  0  0  0
    2.6707    6.2533    0.0000 C   0  0  0  0  0  0  0  0  0  0  0  0
    2.7491    7.0746    0.0000 C   0  0  0  0  0  0  0  0  0  0  0  0
    1.6065    2.6256    0.0000 N   0  0  0  0  0  0  0  0  0  0  0  0
    2.1468    2.0021    0.0000 C   0  0  0  0  0  0  0  0  0  0  0  0
    0.7825    2.6648    0.0000 C   0  0  0  0  0  0  0  0  0  0  0  0
    0.1963    3.2454    0.0000 O   0  0  0  0  0  0  0  0  0  0  0  0
    3.3108    4.7254    0.0000 C   0  0  3  0  0  0  0  0  0  0  0  0
    3.8208    5.3739    0.0000 C   0  0  0  0  0  0  0  0  0  0  0  0
    2.5704    5.0894    0.0000 O   0  0  0  0  0  0  0  0  0  0  0  0
    7.8235    0.0099    0.0000 C   0  0  0  0  0  0  0  0  0  0  0  0
    8.2892    0.6909    0.0000 C   0  0  0  0  0  0  0  0  0  0  0  0
    8.3928   -0.5872    0.0000 C   0  0  0  0  0  0  0  0  0  0  0  0
  1  2  1  0  0  0  0
  2  3  1  0  0  0  0
  3  4  1  0  0  0  0
  3  5  1  0  0  0  0
  5  6  1  0  0  0  0
  5 80  1  0  0  0  0
  6  7  1  0  0  0  0
  6  8  1  0  0  0  0
  8  9  2  0  0  0  0
  8 10  1  0  0  0  0
 10 11  1  0  0  0  0
 10 15  1  0  0  0  0
 11 12  1  0  0  0  0
 12 13  1  0  0  0  0
 12 14  1  0  0  0  0
 15 16  1  0  0  0  0
 15 17  1  0  0  0  0
 17 18  2  0  0  0  0
 17 19  1  0  0  0  0
 19 20  1  0  0  0  0
 19 24  1  0  0  0  0
 20 21  1  0  0  0  0
 21 22  1  0  0  0  0
 21 23  1  0  0  0  0
 24 25  1  0  0  0  0
 24 26  1  0  0  0  0
 26 27  2  0  0  0  0
 26 28  1  0  0  0  0
 28 29  1  0  0  0  0
 28 30  1  0  0  0  0
 30 31  1  0  0  0  0
 31 32  2  0  0  0  0
 31 33  1  0  0  0  0
 33 34  1  0  0  0  0
 33 35  1  0  0  0  0
 35 36  1  0  0  0  0
 36 37  2  0  0  0  0
 36 38  1  0  0  0  0
 38 39  1  0  0  0  0
 38 43  1  0  0  0  0
 39 40  1  0  0  0  0
 40 41  1  0  0  0  0
 40 42  1  0  0  0  0
 43 44  1  0  0  0  0
 43 45  1  0  0  0  0
 45 46  2  0  0  0  0
 45 47  1  0  0  0  0
 47 48  1  0  0  0  0
 47 85  1  0  0  0  0
 48 49  1  0  0  0  0
 49 50  2  0  0  0  0
 49 51  1  0  0  0  0
 51 52  1  0  0  0  0
 51 56  1  0  0  0  0
 52 53  1  0  0  0  0
 53 54  1  0  0  0  0
 53 55  1  0  0  0  0
 56 57  1  0  0  0  0
 56 58  1  0  0  0  0
 58 59  2  0  0  0  0
 58 60  1  0  0  0  0
 60 61  1  0  0  0  0
 61 62  1  0  0  0  0
 61 63  1  0  0  0  0
 63 64  2  0  0  0  0
 63 65  1  0  0  0  0
 65 66  1  0  0  0  0
 65 82  1  0  0  0  0
 66 67  1  0  0  0  0
 67 68  2  0  0  0  0
 67 69  1  0  0  0  0
 69 70  1  0  0  0  0
 69 78  1  0  0  0  0
 70 71  1  0  0  0  0
 70 72  1  0  0  0  0
 72 73  1  0  0  0  0
 72 74  1  0  0  0  0
 74 75  1  0  0  0  0
 75 76  2  0  0  0  0
 76 77  1  0  0  0  0
 78 79  1  0  0  0  0
 78 80  1  0  0  0  0
 80 81  2  0  0  0  0
 82 83  1  0  0  0  0
 82 84  1  0  0  0  0
 85 86  1  0  0  0  0
 85 87  1  0  0  0  0
M  END
$$$$

 OpenBabel12191814062D

 79 82  0  0  0  0  0  0  0  0999 V2000
    1.4719    3.3473    0.0000 C   0  0  0  0  0  0  0  0  0  0  0  0
    0.7456    2.9561    0.0000 C   0  0  0  0  0  0  0  0  0  0  0  0
    0.7213    2.1314    0.0000 C   0  0  3  0  0  0  0  0  0  0  0  0
   -0.0051    1.7402    0.0000 C   0  0  0  0  0  0  0  0  0  0  0  0
    1.4233    1.6980    0.0000 C   0  0  3  0  0  0  0  0  0  0  0  0
    1.3989    0.8734    0.0000 N   0  0  0  0  0  0  0  0  0  0  0  0
    0.5826    0.7541    0.0000 C   0  0  0  0  0  0  0  0  0  0  0  0
    0.0712    1.4015    0.0000 O   0  0  0  0  0  0  0  0  0  0  0  0
    0.2777   -0.0124    0.0000 C   0  0  3  0  0  0  0  0  0  0  0  0
   -0.4960   -0.2988    0.0000 C   0  0  0  0  0  0  0  0  0  0  0  0
   -0.4628   -1.1231    0.0000 C   0  0  0  0  0  0  0  0  0  0  0  0
    0.4238   -1.5605    0.0000 C   0  0  0  0  0  0  0  0  0  0  0  0
    0.7891   -0.6598    0.0000 N   0  0  0  0  0  0  0  0  0  0  0  0
    0.2404   -1.2759    0.0000 C   0  0  0  0  0  0  0  0  0  0  0  0
   -0.5115   -1.6155    0.0000 O   0  0  0  0  0  0  0  0  0  0  0  0
    0.4996   -2.0591    0.0000 C   0  0  3  0  0  0  0  0  0  0  0  0
   -0.0491   -2.6752    0.0000 C   0  0  0  0  0  0  0  0  0  0  0  0
   -0.8570   -2.5080    0.0000 C   0  0  0  0  0  0  0  0  0  0  0  0
   -1.4057   -3.1241    0.0000 C   0  0  0  0  0  0  0  0  0  0  0  0
   -2.2136   -2.9569    0.0000 C   0  0  0  0  0  0  0  0  0  0  0  0
   -2.4728   -2.1737    0.0000 C   0  0  0  0  0  0  0  0  0  0  0  0
   -1.9241   -1.5576    0.0000 C   0  0  0  0  0  0  0  0  0  0  0  0
   -1.1162   -1.7248    0.0000 C   0  0  0  0  0  0  0  0  0  0  0  0
    1.3075   -2.2263    0.0000 N   0  0  0  0  0  0  0  0  0  0  0  0
    1.9548   -1.7148    0.0000 C   0  0  0  0  0  0  0  0  0  0  0  0
    1.2831   -3.0509    0.0000 C   0  0  0  0  0  0  0  0  0  0  0  0
    0.5568   -3.4421    0.0000 O   0  0  0  0  0  0  0  0  0  0  0  0
    1.9851   -3.4843    0.0000 C   0  0  3  0  0  0  0  0  0  0  0  0
    1.9608   -4.3089    0.0000 C   0  0  0  0  0  0  0  0  0  0  0  0
    1.2345   -4.7002    0.0000 C   0  0  0  0  0  0  0  0  0  0  0  0
    1.2101   -5.5248    0.0000 C   0  0  0  0  0  0  0  0  0  0  0  0
    0.4838   -5.9161    0.0000 C   0  0  0  0  0  0  0  0  0  0  0  0
   -0.2182   -5.4827    0.0000 C   0  0  0  0  0  0  0  0  0  0  0  0
   -0.1939   -4.6580    0.0000 C   0  0  0  0  0  0  0  0  0  0  0  0
    0.5325   -4.2668    0.0000 C   0  0  0  0  0  0  0  0  0  0  0  0
    2.7115   -3.0930    0.0000 N   0  0  0  0  0  0  0  0  0  0  0  0
    3.2229   -3.7404    0.0000 C   0  0  0  0  0  0  0  0  0  0  0  0
    2.9180   -4.5070    0.0000 O   0  0  0  0  0  0  0  0  0  0  0  0
    4.0392   -3.6212    0.0000 C   0  0  3  0  0  0  0  0  0  0  0  0
    4.5506   -4.2685    0.0000 C   0  0  0  0  0  0  0  0  0  0  0  0
    5.3670   -4.1493    0.0000 C   0  0  0  0  0  0  0  0  0  0  0  0
    4.2457   -5.0351    0.0000 C   0  0  0  0  0  0  0  0  0  0  0  0
    4.3441   -2.8546    0.0000 N   0  0  0  0  0  0  0  0  0  0  0  0
    3.9529   -2.1283    0.0000 C   0  0  0  0  0  0  0  0  0  0  0  0
    5.1520   -3.0217    0.0000 C   0  0  0  0  0  0  0  0  0  0  0  0
    5.4112   -3.8050    0.0000 O   0  0  0  0  0  0  0  0  0  0  0  0
    5.7007   -2.4057    0.0000 C   0  0  3  0  0  0  0  0  0  0  0  0
    5.4415   -1.6224    0.0000 O   0  0  0  0  0  0  0  0  0  0  0  0
    6.1679   -1.2312    0.0000 C   0  0  0  0  0  0  0  0  0  0  0  0
    6.8699   -1.6646    0.0000 O   0  0  0  0  0  0  0  0  0  0  0  0
    6.1922   -0.4065    0.0000 C   0  0  3  0  0  0  0  0  0  0  0  0
    5.4902    0.0268    0.0000 N   0  0  0  0  0  0  0  0  0  0  0  0
    4.7070   -0.2323    0.0000 C   0  0  0  0  0  0  0  0  0  0  0  0
    5.7951    0.7934    0.0000 C   0  0  0  0  0  0  0  0  0  0  0  0
    6.6115    0.9127    0.0000 O   0  0  0  0  0  0  0  0  0  0  0  0
    5.2837    1.4408    0.0000 C   0  0  3  0  0  0  0  0  0  0  0  0
    5.5886    2.2074    0.0000 C   0  0  0  0  0  0  0  0  0  0  0  0
    6.4049    2.3266    0.0000 C   0  0  0  0  0  0  0  0  0  0  0  0
    6.7098    3.0932    0.0000 C   0  0  0  0  0  0  0  0  0  0  0  0
    6.9164    1.6793    0.0000 C   0  0  0  0  0  0  0  0  0  0  0  0
    4.4674    1.3215    0.0000 N   0  0  0  0  0  0  0  0  0  0  0  0
    4.2082    2.1048    0.0000 C   0  0  0  0  0  0  0  0  0  0  0  0
    4.7569    2.7209    0.0000 O   0  0  0  0  0  0  0  0  0  0  0  0
    3.4003    2.2719    0.0000 C   0  0  3  0  0  0  0  0  0  0  0  0
    3.1411    3.0552    0.0000 C   0  0  0  0  0  0  0  0  0  0  0  0
    2.3332    3.2223    0.0000 C   0  0  0  0  0  0  0  0  0  0  0  0
    3.6898    3.6712    0.0000 C   0  0  0  0  0  0  0  0  0  0  0  0
    2.8516    1.6559    0.0000 N   0  0  0  0  0  0  0  0  0  0  0  0
    2.9708    0.8395    0.0000 C   0  0  0  0  0  0  0  0  0  0  0  0
    2.1496    2.0893    0.0000 C   0  0  0  0  0  0  0  0  0  0  0  0
    2.1739    2.9139    0.0000 O   0  0  0  0  0  0  0  0  0  0  0  0
    6.9185   -0.0153    0.0000 C   0  0  0  0  0  0  0  0  0  0  0  0
    7.6449    0.3759    0.0000 C   0  0  0  0  0  0  0  0  0  0  0  0
    7.0289    0.8023    0.0000 C   0  0  0  0  0  0  0  0  0  0  0  0
    7.3098   -0.7416    0.0000 O   0  0  0  0  0  0  0  0  0  0  0  0
    6.5086   -2.5728    0.0000 C   0  0  3  0  0  0  0  0  0  0  0  0
    7.0573   -1.9568    0.0000 C   0  0  0  0  0  0  0  0  0  0  0  0
    6.7678   -3.3561    0.0000 C   0  0  0  0  0  0  0  0  0  0  0  0
    6.2191   -3.9721    0.0000 C   0  0  0  0  0  0  0  0  0  0  0  0
  1  2  1  0  0  0  0
  2  3  1  0  0  0  0
  3  4  1  0  0  0  0
  3  5  1  0  0  0  0
  5  6  1  0  0  0  0
  5 70  1  0  0  0  0
  6  7  1  0  0  0  0
  7  8  2  0  0  0  0
  7  9  1  0  0  0  0
  9 10  1  0  0  0  0
  9 13  1  0  0  0  0
 10 11  1  0  0  0  0
 11 12  1  0  0  0  0
 12 13  1  0  0  0  0
 13 14  1  0  0  0  0
 14 15  2  0  0  0  0
 14 16  1  0  0  0  0
 16 17  1  0  0  0  0
 16 24  1  0  0  0  0
 17 18  1  0  0  0  0
 18 19  2  0  0  0  0
 18 23  1  0  0  0  0
 19 20  1  0  0  0  0
 20 21  2  0  0  0  0
 21 22  1  0  0  0  0
 22 23  2  0  0  0  0
 24 25  1  0  0  0  0
 24 26  1  0  0  0  0
 26 27  2  0  0  0  0
 26 28  1  0  0  0  0
 28 29  1  0  0  0  0
 28 36  1  0  0  0  0
 29 30  1  0  0  0  0
 30 31  2  0  0  0  0
 30 35  1  0  0  0  0
 31 32  1  0  0  0  0
 32 33  2  0  0  0  0
 33 34  1  0  0  0  0
 34 35  2  0  0  0  0
 36 37  1  0  0  0  0
 37 38  2  0  0  0  0
 37 39  1  0  0  0  0
 39 40  1  0  0  0  0
 39 43  1  0  0  0  0
 40 41  1  0  0  0  0
 40 42  1  0  0  0  0
 43 44  1  0  0  0  0
 43 45  1  0  0  0  0
 45 46  2  0  0  0  0
 45 47  1  0  0  0  0
 47 48  1  0  0  0  0
 47 76  1  0  0  0  0
 48 49  1  0  0  0  0
 49 50  2  0  0  0  0
 49 51  1  0  0  0  0
 51 52  1  0  0  0  0
 51 72  1  0  0  0  0
 52 53  1  0  0  0  0
 52 54  1  0  0  0  0
 54 55  2  0  0  0  0
 54 56  1  0  0  0  0
 56 57  1  0  0  0  0
 56 61  1  0  0  0  0
 57 58  1  0  0  0  0
 58 59  1  0  0  0  0
 58 60  1  0  0  0  0
 61 62  1  0  0  0  0
 62 63  2  0  0  0  0
 62 64  1  0  0  0  0
 64 65  1  0  0  0  0
 64 68  1  0  0  0  0
 65 66  1  0  0  0  0
 65 67  1  0  0  0  0
 68 69  1  0  0  0  0
 68 70  1  0  0  0  0
 70 71  2  0  0  0  0
 72 73  1  0  0  0  0
 72 74  1  0  0  0  0
 72 75  1  0  0  0  0
 76 77  1  0  0  0  0
 76 78  1  0  0  0  0
 78 79  1  0  0  0  0
M  END
$$$$

 OpenBabel12191814062D

 62 68  0  0  0  0  0  0  0  0999 V2000
   12.5599    0.2597    0.0000 C   0  0  0  0  0  0  0  0  0  0  0  0
   11.9087    0.7663    0.0000 C   0  0  0  0  0  0  0  0  0  0  0  0
   11.1444    0.4557    0.0000 C   0  0  3  0  0  0  0  0  0  0  0  0
   11.0313   -0.3615    0.0000 C   0  0  0  0  0  0  0  0  0  0  0  0
   10.4933    0.9623    0.0000 C   0  0  3  0  0  0  0  0  0  0  0  0
    9.7290    0.6516    0.0000 O   0  0  0  0  0  0  0  0  0  0  0  0
    9.0778    1.1582    0.0000 C   0  0  3  0  0  0  0  0  0  0  0  0
    9.1910    1.9754    0.0000 C   0  0  0  0  0  0  0  0  0  0  0  0
    9.9553    2.2861    0.0000 C   0  0  0  0  0  0  0  0  0  0  0  0
   10.6064    1.7795    0.0000 C   0  0  3  0  0  0  0  0  0  0  0  0
   11.3707    2.0901    0.0000 C   0  0  0  0  0  0  0  0  0  0  0  0
    8.4267    1.6648    0.0000 C   0  0  0  0  0  0  0  0  0  0  0  0
    7.6624    1.3542    0.0000 C   0  0  3  0  0  0  0  0  0  0  0  0
    7.5492    0.5370    0.0000 C   0  0  0  0  0  0  0  0  0  0  0  0
    8.2004    0.0304    0.0000 C   0  0  3  0  0  0  0  0  0  0  0  0
    8.0873   -0.7868    0.0000 C   0  0  0  0  0  0  0  0  0  0  0  0
    7.3230   -1.0974    0.0000 C   0  0  0  0  0  0  0  0  0  0  0  0
    7.2098   -1.9146    0.0000 C   0  0  0  0  0  0  0  0  0  0  0  0
    7.8610   -2.4212    0.0000 C   0  0  0  0  0  0  0  0  0  0  0  0
    6.4455   -2.2252    0.0000 C   0  0  3  0  0  0  0  0  0  0  0  0
    6.3324   -3.0425    0.0000 O   0  0  0  0  0  0  0  0  0  0  0  0
    6.9835   -3.5490    0.0000 C   0  0  3  0  0  0  0  0  0  0  0  0
    7.7478   -3.2384    0.0000 C   0  0  0  0  0  0  0  0  0  0  0  0
    8.3990   -3.7450    0.0000 O   0  0  0  0  0  0  0  0  0  0  0  0
    8.2858   -4.5622    0.0000 C   0  0  3  0  0  0  0  0  0  0  0  0
    8.9370   -5.0688    0.0000 C   0  0  0  0  0  0  0  0  0  0  0  0
    7.5216   -4.8728    0.0000 C   0  0  3  0  0  0  0  0  0  0  0  0
    7.4084   -5.6900    0.0000 O   0  0  0  0  0  0  0  0  0  0  0  0
    6.6441   -6.0007    0.0000 C   0  0  3  0  0  0  0  0  0  0  0  0
    6.5310   -6.8179    0.0000 C   0  0  0  0  0  0  0  0  0  0  0  0
    5.7667   -7.1285    0.0000 C   0  0  3  0  0  0  0  0  0  0  0  0
    5.6536   -7.9457    0.0000 O   0  0  0  0  0  0  0  0  0  0  0  0
    4.8893   -8.2563    0.0000 C   0  0  0  0  0  0  0  0  0  0  0  0
    5.1155   -6.6219    0.0000 C   0  0  3  0  0  0  0  0  0  0  0  0
    4.3513   -6.9325    0.0000 O   0  0  0  0  0  0  0  0  0  0  0  0
    5.2287   -5.8047    0.0000 C   0  0  3  0  0  0  0  0  0  0  0  0
    4.5775   -5.2981    0.0000 C   0  0  0  0  0  0  0  0  0  0  0  0
    5.9930   -5.4941    0.0000 O   0  0  0  0  0  0  0  0  0  0  0  0
    6.8704   -4.3662    0.0000 C   0  0  3  0  0  0  0  0  0  0  0  0
    6.1061   -4.6769    0.0000 O   0  0  0  0  0  0  0  0  0  0  0  0
    5.4550   -4.1703    0.0000 C   0  0  0  0  0  0  0  0  0  0  0  0
    5.7944   -1.7187    0.0000 C   0  0  3  0  0  0  0  0  0  0  0  0
    5.0301   -2.0293    0.0000 C   0  0  0  0  0  0  0  0  0  0  0  0
    5.9075   -0.9015    0.0000 C   0  0  0  0  0  0  0  0  0  0  0  0
    5.2564   -0.3949    0.0000 C   0  0  0  0  0  0  0  0  0  0  0  0
    5.3695    0.4223    0.0000 C   0  0  0  0  0  0  0  0  0  0  0  0
    4.7184    0.9289    0.0000 C   0  0  0  0  0  0  0  0  0  0  0  0
    3.8955    0.8697    0.0000 C   0  0  0  0  0  0  0  0  0  0  0  0
    3.5849    1.6340    0.0000 O   0  0  0  0  0  0  0  0  0  0  0  0
    4.2158    2.1656    0.0000 C   0  0  3  0  0  0  0  0  0  0  0  0
    4.2429    2.9901    0.0000 C   0  0  3  0  0  0  0  0  0  0  0  0
    3.5423    3.4259    0.0000 O   0  0  0  0  0  0  0  0  0  0  0  0
    4.9705    3.3789    0.0000 C   0  0  0  0  0  0  0  0  0  0  0  0
    4.9976    4.2035    0.0000 C   0  0  0  0  0  0  0  0  0  0  0  0
    5.6710    2.9432    0.0000 C   0  0  0  0  0  0  0  0  0  0  0  0
    5.5958    2.0567    0.0000 C   0  0  3  0  0  0  0  0  0  0  0  0
    6.2469    1.5502    0.0000 C   0  0  0  0  0  0  0  0  0  0  0  0
    6.1338    0.7330    0.0000 O   0  0  0  0  0  0  0  0  0  0  0  0
    7.0112    1.8608    0.0000 O   0  0  0  0  0  0  0  0  0  0  0  0
    4.8315    1.7461    0.0000 C   0  0  3  0  0  0  0  0  0  0  0  0
    4.9188    2.5665    0.0000 O   0  0  0  0  0  0  0  0  0  0  0  0
    8.9647    0.3410    0.0000 O   0  0  0  0  0  0  0  0  0  0  0  0
  1  2  1  0  0  0  0
  2  3  1  0  0  0  0
  3  4  1  0  0  0  0
  3  5  1  0  0  0  0
  5  6  1  0  0  0  0
  5 10  1  0  0  0  0
  6  7  1  0  0  0  0
  7  8  1  0  0  0  0
  7 12  1  0  0  0  0
  7 62  1  0  0  0  0
  8  9  1  0  0  0  0
  9 10  1  0  0  0  0
 10 11  1  0  0  0  0
 12 13  1  0  0  0  0
 13 14  1  0  0  0  0
 13 59  1  0  0  0  0
 14 15  1  0  0  0  0
 15 16  1  0  0  0  0
 15 62  1  0  0  0  0
 16 17  1  0  0  0  0
 17 18  2  0  0  0  0
 18 19  1  0  0  0  0
 18 20  1  0  0  0  0
 20 21  1  0  0  0  0
 20 42  1  0  0  0  0
 21 22  1  0  0  0  0
 22 23  1  0  0  0  0
 22 39  1  0  0  0  0
 23 24  1  0  0  0  0
 24 25  1  0  0  0  0
 25 26  1  0  0  0  0
 25 27  1  0  0  0  0
 27 28  1  0  0  0  0
 27 39  1  0  0  0  0
 28 29  1  0  0  0  0
 29 30  1  0  0  0  0
 29 38  1  0  0  0  0
 30 31  1  0  0  0  0
 31 32  1  0  0  0  0
 31 34  1  0  0  0  0
 32 33  1  0  0  0  0
 34 35  1  0  0  0  0
 34 36  1  0  0  0  0
 36 37  1  0  0  0  0
 36 38  1  0  0  0  0
 39 40  1  0  0  0  0
 40 41  1  0  0  0  0
 42 43  1  0  0  0  0
 42 44  1  0  0  0  0
 44 45  2  0  0  0  0
 45 46  1  0  0  0  0
 46 47  2  0  0  0  0
 47 48  1  0  0  0  0
 47 60  1  0  0  0  0
 48 49  1  0  0  0  0
 49 50  1  0  0  0  0
 50 51  1  0  0  0  0
 50 60  1  0  0  0  0
 51 52  1  0  0  0  0
 51 53  1  0  0  0  0
 53 54  1  0  0  0  0
 53 55  2  0  0  0  0
 55 56  1  0  0  0  0
 56 57  1  0  0  0  0
 56 60  1  0  0  0  0
 57 58  2  0  0  0  0
 57 59  1  0  0  0  0
 60 61  1  0  0  0  0
M  END
$$$$

 OpenBabel12191814062D

 42 44  0  0  0  0  0  0  0  0999 V2000
    3.5724   -3.7125    0.0000 C   0  0  0  0  0  0  0  0  0  0  0  0
    2.8579   -4.1250    0.0000 C   0  0  0  0  0  0  0  0  0  0  0  0
    2.8579   -4.9500    0.0000 C   0  0  3  0  0  0  0  0  0  0  0  0
    2.1434   -5.3625    0.0000 C   0  0  3  0  0  0  0  0  0  0  0  0
    2.0572   -6.1830    0.0000 O   0  0  0  0  0  0  0  0  0  0  0  0
    1.2502   -6.3545    0.0000 C   0  0  3  0  0  0  0  0  0  0  0  0
    1.5051   -7.1391    0.0000 C   0  0  0  0  0  0  0  0  0  0  0  0
    2.3121   -7.3107    0.0000 C   0  0  0  0  0  0  0  0  0  0  0  0
    0.8377   -5.6400    0.0000 C   0  0  0  0  0  0  0  0  0  0  0  0
    1.3897   -5.0269    0.0000 C   0  0  3  0  0  0  0  0  0  0  0  0
    1.2182   -4.2200    0.0000 C   0  0  0  0  0  0  0  0  0  0  0  0
    0.4965   -6.6901    0.0000 C   0  0  3  0  0  0  0  0  0  0  0  0
    0.4103   -7.5105    0.0000 C   0  0  0  0  0  0  0  0  0  0  0  0
   -0.3434   -7.8461    0.0000 C   0  0  0  0  0  0  0  0  0  0  0  0
   -1.0108   -7.3612    0.0000 C   0  0  3  0  0  0  0  0  0  0  0  0
   -1.3725   -8.1027    0.0000 O   0  0  0  0  0  0  0  0  0  0  0  0
   -1.8039   -7.1338    0.0000 C   0  0  0  0  0  0  0  0  0  0  0  0
   -2.3973   -7.7069    0.0000 C   0  0  0  0  0  0  0  0  0  0  0  0
   -0.9246   -6.5407    0.0000 C   0  0  3  0  0  0  0  0  0  0  0  0
   -1.5920   -6.0558    0.0000 C   0  0  0  0  0  0  0  0  0  0  0  0
   -0.1709   -6.2051    0.0000 O   0  0  0  0  0  0  0  0  0  0  0  0
    3.5724   -5.3625    0.0000 C   0  0  0  0  0  0  0  0  0  0  0  0
    3.5724   -6.1875    0.0000 O   0  0  0  0  0  0  0  0  0  0  0  0
    4.2868   -4.9500    0.0000 C   0  0  3  0  0  0  0  0  0  0  0  0
    4.2868   -4.1250    0.0000 C   0  0  0  0  0  0  0  0  0  0  0  0
    5.0013   -5.3625    0.0000 C   0  0  3  0  0  0  0  0  0  0  0  0
    5.0013   -6.1875    0.0000 O   0  0  0  0  0  0  0  0  0  0  0  0
    5.7158   -4.9500    0.0000 C   0  0  3  0  0  0  0  0  0  0  0  0
    5.7158   -4.1250    0.0000 C   0  0  0  0  0  0  0  0  0  0  0  0
    6.4302   -5.3625    0.0000 C   0  0  0  0  0  0  0  0  0  0  0  0
    7.1447   -4.9500    0.0000 C   0  0  0  0  0  0  0  0  0  0  0  0
    7.8592   -5.3625    0.0000 C   0  0  0  0  0  0  0  0  0  0  0  0
    8.5737   -4.9500    0.0000 C   0  0  0  0  0  0  0  0  0  0  0  0
    9.2881   -5.3625    0.0000 C   0  0  0  0  0  0  0  0  0  0  0  0
    9.2881   -6.1875    0.0000 C   0  0  0  0  0  0  0  0  0  0  0  0
   10.0026   -6.6000    0.0000 C   0  0  0  0  0  0  0  0  0  0  0  0
    8.5737   -6.6000    0.0000 C   0  0  0  0  0  0  0  0  0  0  0  0
    8.5737   -7.4250    0.0000 O   0  0  0  0  0  0  0  0  0  0  0  0
    7.8592   -6.1875    0.0000 C   0  0  0  0  0  0  0  0  0  0  0  0
    7.1447   -6.6000    0.0000 C   0  0  0  0  0  0  0  0  0  0  0  0
    6.4302   -6.1875    0.0000 O   0  0  0  0  0  0  0  0  0  0  0  0
    7.1447   -7.4250    0.0000 O   0  0  0  0  0  0  0  0  0  0  0  0
  1  2  1  0  0  0  0
  2  3  1  0  0  0  0
  3  4  1  0  0  0  0
  3 22  1  0  0  0  0
  4  5  1  0  0  0  0
  4 10  1  0  0  0  0
  5  6  1  0  0  0  0
  6  7  1  0  0  0  0
  6  9  1  0  0  0  0
  6 12  1  0  0  0  0
  7  8  1  0  0  0  0
  9 10  1  0  0  0  0
 10 11  1  0  0  0  0
 12 13  1  0  0  0  0
 12 21  1  0  0  0  0
 13 14  1  0  0  0  0
 14 15  1  0  0  0  0
 15 16  1  0  0  0  0
 15 17  1  0  0  0  0
 15 19  1  0  0  0  0
 17 18  1  0  0  0  0
 19 20  1  0  0  0  0
 19 21  1  0  0  0  0
 22 23  2  0  0  0  0
 22 24  1  0  0  0  0
 24 25  1  0  0  0  0
 24 26  1  0  0  0  0
 26 27  1  0  0  0  0
 26 28  1  0  0  0  0
 28 29  1  0  0  0  0
 28 30  1  0  0  0  0
 30 31  1  0  0  0  0
 31 32  1  0  0  0  0
 32 33  2  0  0  0  0
 32 39  1  0  0  0  0
 33 34  1  0  0  0  0
 34 35  2  0  0  0  0
 35 36  1  0  0  0  0
 35 37  1  0  0  0  0
 37 38  1  0  0  0  0
 37 39  2  0  0  0  0
 39 40  1  0  0  0  0
 40 41  1  0  0  0  0
 40 42  2  0  0  0  0
M  END
$$$$

 OpenBabel12191814062D

 32 33  0  0  0  0  0  0  0  0999 V2000
    0.5230   -2.9980    0.0000 C   0  0  0  0  0  0  0  0  0  0  0  0
   -0.3020   -2.9980    0.0000 C   0  0  0  0  0  0  0  0  0  0  0  0
   -0.7145   -3.7125    0.0000 C   0  0  3  0  0  0  0  0  0  0  0  0
    0.0000   -4.1250    0.0000 C   0  0  0  0  0  0  0  0  0  0  0  0
    0.7145   -3.7125    0.0000 C   0  0  0  0  0  0  0  0  0  0  0  0
    1.4289   -4.1250    0.0000 C   0  0  0  0  0  0  0  0  0  0  0  0
    2.1434   -3.7125    0.0000 N   0  0  0  0  0  0  0  0  0  0  0  0
    2.1434   -2.8875    0.0000 C   0  0  0  0  0  0  0  0  0  0  0  0
    2.8579   -4.1250    0.0000 C   0  0  0  0  0  0  0  0  0  0  0  0
    3.5724   -3.7125    0.0000 C   0  0  0  0  0  0  0  0  0  0  0  0
    4.2868   -4.1250    0.0000 C   0  0  0  0  0  0  0  0  0  0  0  0
    5.0013   -3.7125    0.0000 C   0  0  0  0  0  0  0  0  0  0  0  0
    5.7158   -4.1250    0.0000 C   0  0  0  0  0  0  0  0  0  0  0  0
    5.7158   -4.9500    0.0000 C   0  0  0  0  0  0  0  0  0  0  0  0
    6.4302   -5.3625    0.0000 O   0  0  0  0  0  0  0  0  0  0  0  0
    6.4302   -6.1875    0.0000 C   0  0  0  0  0  0  0  0  0  0  0  0
    5.0013   -5.3625    0.0000 C   0  0  0  0  0  0  0  0  0  0  0  0
    5.0013   -6.1875    0.0000 O   0  0  0  0  0  0  0  0  0  0  0  0
    4.2868   -6.6000    0.0000 C   0  0  0  0  0  0  0  0  0  0  0  0
    4.2868   -4.9500    0.0000 C   0  0  0  0  0  0  0  0  0  0  0  0
   -1.1270   -4.4270    0.0000 C   0  0  0  0  0  0  0  0  0  0  0  0
   -1.5395   -5.1414    0.0000 N   0  0  0  0  0  0  0  0  0  0  0  0
   -1.4289   -3.3000    0.0000 C   0  0  0  0  0  0  0  0  0  0  0  0
   -2.1434   -3.7125    0.0000 C   0  0  0  0  0  0  0  0  0  0  0  0
   -2.8579   -3.3000    0.0000 C   0  0  0  0  0  0  0  0  0  0  0  0
   -2.8579   -2.4750    0.0000 C   0  0  0  0  0  0  0  0  0  0  0  0
   -3.5724   -2.0625    0.0000 O   0  0  0  0  0  0  0  0  0  0  0  0
   -4.2868   -2.4750    0.0000 C   0  0  0  0  0  0  0  0  0  0  0  0
   -2.1434   -2.0625    0.0000 C   0  0  0  0  0  0  0  0  0  0  0  0
   -2.1434   -1.2375    0.0000 O   0  0  0  0  0  0  0  0  0  0  0  0
   -1.4289   -0.8250    0.0000 C   0  0  0  0  0  0  0  0  0  0  0  0
   -1.4289   -2.4750    0.0000 C   0  0  0  0  0  0  0  0  0  0  0  0
  1  2  1  0  0  0  0
  2  3  1  0  0  0  0
  3  4  1  0  0  0  0
  3 21  1  0  0  0  0
  3 23  1  0  0  0  0
  4  5  1  0  0  0  0
  5  6  1  0  0  0  0
  6  7  1  0  0  0  0
  7  8  1  0  0  0  0
  7  9  1  0  0  0  0
  9 10  1  0  0  0  0
 10 11  1  0  0  0  0
 11 12  2  0  0  0  0
 11 20  1  0  0  0  0
 12 13  1  0  0  0  0
 13 14  2  0  0  0  0
 14 15  1  0  0  0  0
 14 17  1  0  0  0  0
 15 16  1  0  0  0  0
 17 18  1  0  0  0  0
 17 20  2  0  0  0  0
 18 19  1  0  0  0  0
 21 22  3  0  0  0  0
 23 24  2  0  0  0  0
 23 32  1  0  0  0  0
 24 25  1  0  0  0  0
 25 26  2  0  0  0  0
 26 27  1  0  0  0  0
 26 29  1  0  0  0  0
 27 28  1  0  0  0  0
 29 30  1  0  0  0  0
 29 32  2  0  0  0  0
 30 31  1  0  0  0  0
M  END
$$$$

 OpenBabel12191814062D

 28 29  0  0  0  0  0  0  0  0999 V2000
    4.2868   -2.2539    0.0000 C   0  0  0  0  0  0  0  0  0  0  0  0
    4.6993   -1.5395    0.0000 C   0  0  0  0  0  0  0  0  0  0  0  0
    4.2868   -0.8250    0.0000 C   0  0  3  0  0  0  0  0  0  0  0  0
    3.5724   -1.2375    0.0000 C   0  0  0  0  0  0  0  0  0  0  0  0
    3.5724   -2.0625    0.0000 O   0  0  0  0  0  0  0  0  0  0  0  0
    2.8579   -2.4750    0.0000 C   0  0  0  0  0  0  0  0  0  0  0  0
    2.1434   -2.0625    0.0000 O   0  0  0  0  0  0  0  0  0  0  0  0
    2.8579   -3.3000    0.0000 C   0  0  0  0  0  0  0  0  0  0  0  0
    3.5724   -3.7125    0.0000 C   0  0  0  0  0  0  0  0  0  0  0  0
    3.5724   -4.5375    0.0000 C   0  0  0  0  0  0  0  0  0  0  0  0
    4.2868   -4.9500    0.0000 O   0  0  0  0  0  0  0  0  0  0  0  0
    4.2868   -5.7750    0.0000 C   0  0  0  0  0  0  0  0  0  0  0  0
    2.8579   -4.9500    0.0000 C   0  0  0  0  0  0  0  0  0  0  0  0
    2.8579   -5.7750    0.0000 O   0  0  0  0  0  0  0  0  0  0  0  0
    2.1434   -6.1875    0.0000 C   0  0  0  0  0  0  0  0  0  0  0  0
    2.1434   -4.5375    0.0000 C   0  0  0  0  0  0  0  0  0  0  0  0
    1.4289   -4.9500    0.0000 O   0  0  0  0  0  0  0  0  0  0  0  0
    0.7145   -4.5375    0.0000 C   0  0  0  0  0  0  0  0  0  0  0  0
    2.1434   -3.7125    0.0000 C   0  0  0  0  0  0  0  0  0  0  0  0
    3.8743   -0.1105    0.0000 N   0  0  0  0  0  0  0  0  0  0  0  0
    4.2868    0.6039    0.0000 C   0  0  0  0  0  0  0  0  0  0  0  0
    3.0493   -0.1105    0.0000 C   0  0  0  0  0  0  0  0  0  0  0  0
    5.0013   -0.4125    0.0000 C   0  0  0  0  0  0  0  0  0  0  0  0
    5.0013    0.4125    0.0000 C   0  0  0  0  0  0  0  0  0  0  0  0
    5.7158    0.8250    0.0000 C   0  0  0  0  0  0  0  0  0  0  0  0
    6.4302    0.4125    0.0000 C   0  0  0  0  0  0  0  0  0  0  0  0
    6.4302   -0.4125    0.0000 C   0  0  0  0  0  0  0  0  0  0  0  0
    5.7158   -0.8250    0.0000 C   0  0  0  0  0  0  0  0  0  0  0  0
  1  2  1  0  0  0  0
  2  3  1  0  0  0  0
  3  4  1  0  0  0  0
  3 20  1  0  0  0  0
  3 23  1  0  0  0  0
  4  5  1  0  0  0  0
  5  6  1  0  0  0  0
  6  7  2  0  0  0  0
  6  8  1  0  0  0  0
  8  9  2  0  0  0  0
  8 19  1  0  0  0  0
  9 10  1  0  0  0  0
 10 11  1  0  0  0  0
 10 13  2  0  0  0  0
 11 12  1  0  0  0  0
 13 14  1  0  0  0  0
 13 16  1  0  0  0  0
 14 15  1  0  0  0  0
 16 17  1  0  0  0  0
 16 19  2  0  0  0  0
 17 18  1  0  0  0  0
 20 21  1  0  0  0  0
 20 22  1  0  0  0  0
 23 24  2  0  0  0  0
 23 28  1  0  0  0  0
 24 25  1  0  0  0  0
 25 26  2  0  0  0  0
 26 27  1  0  0  0  0
 27 28  2  0  0  0  0
M  END
$$$$

 OpenBabel12191814062D

 36 38  0  0  0  0  0  0  0  0999 V2000
   -3.5724   -1.2375    0.0000 C   0  0  0  0  0  0  0  0  0  0  0  0
   -4.2868   -1.6500    0.0000 C   0  0  0  0  0  0  0  0  0  0  0  0
   -4.2868   -2.4750    0.0000 C   0  0  3  0  0  0  0  0  0  0  0  0
   -5.0013   -2.8875    0.0000 O   0  0  0  0  0  0  0  0  0  0  0  0
   -5.7158   -2.4750    0.0000 C   0  0  0  0  0  0  0  0  0  0  0  0
   -6.4302   -2.8875    0.0000 C   0  0  0  0  0  0  0  0  0  0  0  0
   -7.1447   -2.4750    0.0000 C   0  0  0  0  0  0  0  0  0  0  0  0
   -7.1447   -1.6500    0.0000 C   0  0  0  0  0  0  0  0  0  0  0  0
   -6.4302   -1.2375    0.0000 C   0  0  0  0  0  0  0  0  0  0  0  0
   -5.7158   -1.6500    0.0000 C   0  0  0  0  0  0  0  0  0  0  0  0
   -3.5724   -2.8875    0.0000 C   0  0  0  0  0  0  0  0  0  0  0  0
   -3.5724   -3.7125    0.0000 O   0  0  0  0  0  0  0  0  0  0  0  0
   -2.8579   -2.4750    0.0000 O   0  0  0  0  0  0  0  0  0  0  0  0
   -2.1434   -2.8875    0.0000 C   0  0  0  0  0  0  0  0  0  0  0  0
   -1.4289   -2.4750    0.0000 C   0  0  0  0  0  0  0  0  0  0  0  0
   -0.7145   -2.8875    0.0000 N   0  0  0  0  0  0  0  0  0  0  0  0
    0.0000   -2.4750    0.0000 C   0  0  0  0  0  0  0  0  0  0  0  0
    0.7145   -2.8875    0.0000 C   0  0  0  0  0  0  0  0  0  0  0  0
    0.7145   -3.7125    0.0000 N   0  0  0  0  0  0  0  0  0  0  0  0
    1.4289   -4.1250    0.0000 C   0  0  0  0  0  0  0  0  0  0  0  0
    2.1434   -3.7125    0.0000 C   0  0  0  0  0  0  0  0  0  0  0  0
    2.8579   -4.1250    0.0000 O   0  0  0  0  0  0  0  0  0  0  0  0
    3.5724   -3.7125    0.0000 C   0  0  0  0  0  0  0  0  0  0  0  0
    3.5724   -2.8875    0.0000 O   0  0  0  0  0  0  0  0  0  0  0  0
    4.2868   -4.1250    0.0000 C   0  0  3  0  0  0  0  0  0  0  0  0
    4.2868   -4.9500    0.0000 C   0  0  0  0  0  0  0  0  0  0  0  0
    5.0013   -5.3625    0.0000 C   0  0  0  0  0  0  0  0  0  0  0  0
    5.0013   -3.7125    0.0000 O   0  0  0  0  0  0  0  0  0  0  0  0
    5.7158   -4.1250    0.0000 C   0  0  0  0  0  0  0  0  0  0  0  0
    6.4302   -3.7125    0.0000 C   0  0  0  0  0  0  0  0  0  0  0  0
    7.1447   -4.1250    0.0000 C   0  0  0  0  0  0  0  0  0  0  0  0
    7.1447   -4.9500    0.0000 C   0  0  0  0  0  0  0  0  0  0  0  0
    6.4302   -5.3625    0.0000 C   0  0  0  0  0  0  0  0  0  0  0  0
    5.7158   -4.9500    0.0000 C   0  0  0  0  0  0  0  0  0  0  0  0
    0.0000   -4.1250    0.0000 C   0  0  0  0  0  0  0  0  0  0  0  0
   -0.7145   -3.7125    0.0000 C   0  0  0  0  0  0  0  0  0  0  0  0
  1  2  1  0  0  0  0
  2  3  1  0  0  0  0
  3  4  1  0  0  0  0
  3 11  1  0  0  0  0
  4  5  1  0  0  0  0
  5  6  2  0  0  0  0
  5 10  1  0  0  0  0
  6  7  1  0  0  0  0
  7  8  2  0  0  0  0
  8  9  1  0  0  0  0
  9 10  2  0  0  0  0
 11 12  2  0  0  0  0
 11 13  1  0  0  0  0
 13 14  1  0  0  0  0
 14 15  1  0  0  0  0
 15 16  1  0  0  0  0
 16 17  1  0  0  0  0
 16 36  1  0  0  0  0
 17 18  1  0  0  0  0
 18 19  1  0  0  0  0
 19 20  1  0  0  0  0
 19 35  1  0  0  0  0
 20 21  1  0  0  0  0
 21 22  1  0  0  0  0
 22 23  1  0  0  0  0
 23 24  2  0  0  0  0
 23 25  1  0  0  0  0
 25 26  1  0  0  0  0
 25 28  1  0  0  0  0
 26 27  1  0  0  0  0
 28 29  1  0  0  0  0
 29 30  2  0  0  0  0
 29 34  1  0  0  0  0
 30 31  1  0  0  0  0
 31 32  2  0  0  0  0
 32 33  1  0  0  0  0
 33 34  2  0  0  0  0
 35 36  1  0  0  0  0
M  END
$$$$

 OpenBabel12191814062D

 25 27  0  0  0  0  0  0  0  0999 V2000
    2.6835    2.2216    0.0000 C   0  0  0  0  0  0  0  0  0  0  0  0
    3.4587    1.9394    0.0000 C   0  0  0  0  0  0  0  0  0  0  0  0
    3.6020    1.1270    0.0000 C   0  0  3  0  0  0  0  0  0  0  0  0
    4.3772    1.4091    0.0000 C   0  0  0  0  0  0  0  0  0  0  0  0
    2.7770    1.1270    0.0000 C   0  0  0  0  0  0  0  0  0  0  0  0
    2.3645    0.4125    0.0000 C   0  0  3  0  0  0  0  0  0  0  0  0
    2.7770   -0.3020    0.0000 N   0  0  3  0  0  0  0  0  0  0  0  0
    2.3645   -1.0164    0.0000 C   0  0  0  0  0  0  0  0  0  0  0  0
    1.5395   -1.0164    0.0000 C   0  0  0  0  0  0  0  0  0  0  0  0
    1.1270   -0.3020    0.0000 C   0  0  0  0  0  0  0  0  0  0  0  0
    0.3020   -0.3020    0.0000 C   0  0  0  0  0  0  0  0  0  0  0  0
   -0.1105    0.4125    0.0000 C   0  0  0  0  0  0  0  0  0  0  0  0
   -0.9355    0.4125    0.0000 O   0  0  0  0  0  0  0  0  0  0  0  0
   -1.3480    1.1270    0.0000 C   0  0  0  0  0  0  0  0  0  0  0  0
    0.3020    1.1270    0.0000 C   0  0  0  0  0  0  0  0  0  0  0  0
   -0.1105    1.8414    0.0000 O   0  0  0  0  0  0  0  0  0  0  0  0
    0.3020    2.5559    0.0000 C   0  0  0  0  0  0  0  0  0  0  0  0
    1.1270    1.1270    0.0000 C   0  0  0  0  0  0  0  0  0  0  0  0
    1.5395    0.4125    0.0000 C   0  0  0  0  0  0  0  0  0  0  0  0
    3.6020   -0.3020    0.0000 C   0  0  0  0  0  0  0  0  0  0  0  0
    4.0145    0.4125    0.0000 C   0  0  3  0  0  0  0  0  0  0  0  0
    4.8395    0.4125    0.0000 C   0  0  0  0  0  0  0  0  0  0  0  0
    5.2520   -0.3020    0.0000 C   0  0  0  0  0  0  0  0  0  0  0  0
    6.0770   -0.3020    0.0000 C   0  0  0  0  0  0  0  0  0  0  0  0
    4.8395   -1.0164    0.0000 C   0  0  0  0  0  0  0  0  0  0  0  0
  1  2  1  0  0  0  0
  2  3  1  0  0  0  0
  3  4  1  0  0  0  0
  3  5  1  0  0  0  0
  3 21  1  0  0  0  0
  5  6  1  0  0  0  0
  6  7  1  0  0  0  0
  6 19  1  0  0  0  0
  7  8  1  0  0  0  0
  7 20  1  0  0  0  0
  8  9  1  0  0  0  0
  9 10  1  0  0  0  0
 10 11  2  0  0  0  0
 10 19  1  0  0  0  0
 11 12  1  0  0  0  0
 12 13  1  0  0  0  0
 12 15  2  0  0  0  0
 13 14  1  0  0  0  0
 15 16  1  0  0  0  0
 15 18  1  0  0  0  0
 16 17  1  0  0  0  0
 18 19  2  0  0  0  0
 20 21  1  0  0  0  0
 21 22  1  0  0  0  0
 22 23  1  0  0  0  0
 23 24  1  0  0  0  0
 23 25  1  0  0  0  0
M  END
$$$$

 OpenBabel12191814062D

 47 51  0  0  0  0  0  0  0  0999 V2000
   -1.8291   -1.5890    0.0000 C   0  0  0  0  0  0  0  0  0  0  0  0
   -2.3811   -0.9759    0.0000 C   0  0  0  0  0  0  0  0  0  0  0  0
   -2.1262   -0.1913    0.0000 C   0  0  3  0  0  0  0  0  0  0  0  0
   -2.0400    0.6292    0.0000 C   0  0  0  0  0  0  0  0  0  0  0  0
   -1.2330    0.8007    0.0000 C   0  0  0  0  0  0  0  0  0  0  0  0
   -0.8205    0.0862    0.0000 C   0  0  3  0  0  0  0  0  0  0  0  0
   -1.3725   -0.5269    0.0000 O   0  0  0  0  0  0  0  0  0  0  0  0
   -0.0000    0.0000    0.0000 C   0  0  3  0  0  0  0  0  0  0  0  0
   -0.1715   -0.8070    0.0000 C   0  0  0  0  0  0  0  0  0  0  0  0
   -0.0000    0.8250    0.0000 C   0  0  0  0  0  0  0  0  0  0  0  0
    0.7846    1.0799    0.0000 C   0  0  0  0  0  0  0  0  0  0  0  0
    1.2695    0.4125    0.0000 C   0  0  3  0  0  0  0  0  0  0  0  0
    1.6820    1.1270    0.0000 C   0  0  0  0  0  0  0  0  0  0  0  0
    2.5070    1.1270    0.0000 C   0  0  3  0  0  0  0  0  0  0  0  0
    2.9195    1.8414    0.0000 O   0  0  0  0  0  0  0  0  0  0  0  0
    2.9195    0.4125    0.0000 C   0  0  3  0  0  0  0  0  0  0  0  0
    3.7445    0.4125    0.0000 C   0  0  0  0  0  0  0  0  0  0  0  0
    2.5070   -0.3020    0.0000 C   0  0  3  0  0  0  0  0  0  0  0  0
    1.6820   -0.3020    0.0000 O   0  0  0  0  0  0  0  0  0  0  0  0
    2.9195   -1.0164    0.0000 C   0  0  3  0  0  0  0  0  0  0  0  0
    2.5070   -1.7309    0.0000 C   0  0  0  0  0  0  0  0  0  0  0  0
    3.7445   -1.0164    0.0000 C   0  0  3  0  0  0  0  0  0  0  0  0
    4.1570   -0.3020    0.0000 O   0  0  0  0  0  0  0  0  0  0  0  0
    4.9820   -0.3020    0.0000 C   0  0  0  0  0  0  0  0  0  0  0  0
    4.1570   -1.7309    0.0000 C   0  0  3  0  0  0  0  0  0  0  0  0
    3.7445   -2.4454    0.0000 C   0  0  0  0  0  0  0  0  0  0  0  0
    4.9820   -1.7309    0.0000 C   0  0  0  0  0  0  0  0  0  0  0  0
    5.3945   -2.4454    0.0000 O   0  0  0  0  0  0  0  0  0  0  0  0
    5.3945   -1.0164    0.0000 O   0  0  0  0  0  0  0  0  0  0  0  0
    0.7846   -0.2549    0.0000 O   0  0  0  0  0  0  0  0  0  0  0  0
   -2.9332   -0.0198    0.0000 C   0  0  3  0  0  0  0  0  0  0  0  0
   -3.5463   -0.5718    0.0000 O   0  0  0  0  0  0  0  0  0  0  0  0
   -4.2607   -0.1593    0.0000 C   0  0  3  0  0  0  0  0  0  0  0  0
   -4.0892    0.6477    0.0000 C   0  0  0  0  0  0  0  0  0  0  0  0
   -3.2687    0.7339    0.0000 C   0  0  3  0  0  0  0  0  0  0  0  0
   -2.8562    1.4484    0.0000 C   0  0  0  0  0  0  0  0  0  0  0  0
   -5.0144   -0.4949    0.0000 C   0  0  3  0  0  0  0  0  0  0  0  0
   -5.1006   -1.3153    0.0000 O   0  0  0  0  0  0  0  0  0  0  0  0
   -5.8543   -1.6509    0.0000 C   0  0  3  0  0  0  0  0  0  0  0  0
   -5.3930   -2.3349    0.0000 O   0  0  0  0  0  0  0  0  0  0  0  0
   -6.4478   -2.2240    0.0000 C   0  0  0  0  0  0  0  0  0  0  0  0
   -6.2482   -3.0245    0.0000 O   0  0  0  0  0  0  0  0  0  0  0  0
   -6.5218   -1.1660    0.0000 C   0  0  3  0  0  0  0  0  0  0  0  0
   -7.2754   -1.5015    0.0000 C   0  0  0  0  0  0  0  0  0  0  0  0
   -6.4355   -0.3455    0.0000 C   0  0  0  0  0  0  0  0  0  0  0  0
   -5.6818   -0.0099    0.0000 C   0  0  3  0  0  0  0  0  0  0  0  0
   -5.5956    0.8105    0.0000 C   0  0  0  0  0  0  0  0  0  0  0  0
  1  2  1  0  0  0  0
  2  3  1  0  0  0  0
  3  4  1  0  0  0  0
  3  7  1  0  0  0  0
  3 31  1  0  0  0  0
  4  5  1  0  0  0  0
  5  6  1  0  0  0  0
  6  7  1  0  0  0  0
  6  8  1  0  0  0  0
  8  9  1  0  0  0  0
  8 10  1  0  0  0  0
  8 30  1  0  0  0  0
 10 11  1  0  0  0  0
 11 12  1  0  0  0  0
 12 13  1  0  0  0  0
 12 19  1  0  0  0  0
 12 30  1  0  0  0  0
 13 14  1  0  0  0  0
 14 15  1  0  0  0  0
 14 16  1  0  0  0  0
 16 17  1  0  0  0  0
 16 18  1  0  0  0  0
 18 19  1  0  0  0  0
 18 20  1  0  0  0  0
 20 21  1  0  0  0  0
 20 22  1  0  0  0  0
 22 23  1  0  0  0  0
 22 25  1  0  0  0  0
 23 24  1  0  0  0  0
 25 26  1  0  0  0  0
 25 27  1  0  0  0  0
 27 28  1  0  0  0  0
 27 29  2  0  0  0  0
 31 32  1  0  0  0  0
 31 35  1  0  0  0  0
 32 33  1  0  0  0  0
 33 34  1  0  0  0  0
 33 37  1  0  0  0  0
 34 35  1  0  0  0  0
 35 36  1  0  0  0  0
 37 38  1  0  0  0  0
 37 46  1  0  0  0  0
 38 39  1  0  0  0  0
 39 40  1  0  0  0  0
 39 41  1  0  0  0  0
 39 43  1  0  0  0  0
 41 42  1  0  0  0  0
 43 44  1  0  0  0  0
 43 45  1  0  0  0  0
 45 46  1  0  0  0  0
 46 47  1  0  0  0  0
M  END
$$$$

 OpenBabel12191814062D

 59 67  0  0  0  0  0  0  0  0999 V2000
    8.0569   -0.2548    0.0000 C   0  0  0  0  0  0  0  0  0  0  0  0
    7.3563   -0.6906    0.0000 C   0  0  0  0  0  0  0  0  0  0  0  0
    6.6287   -0.3017    0.0000 C   0  0  3  0  0  0  0  0  0  0  0  0
    7.1158    0.3641    0.0000 O   0  0  0  0  0  0  0  0  0  0  0  0
    6.0160    0.2952    0.0000 C   0  0  0  0  0  0  0  0  0  0  0  0
    5.1553    0.1361    0.0000 C   0  0  3  0  0  0  0  0  0  0  0  0
    5.2506   -0.6160    0.0000 C   0  0  0  0  0  0  0  0  0  0  0  0
    5.4908   -1.3351    0.0000 N   0  0  3  0  0  0  0  0  0  0  0  0
    6.3354   -1.1053    0.0000 C   0  0  0  0  0  0  0  0  0  0  0  0
    4.8187   -1.8964    0.0000 C   0  0  0  0  0  0  0  0  0  0  0  0
    3.9623   -1.9814    0.0000 C   0  0  0  0  0  0  0  0  0  0  0  0
    3.2792   -1.4899    0.0000 C   0  0  0  0  0  0  0  0  0  0  0  0
    3.0958   -0.6856    0.0000 C   0  0  0  0  0  0  0  0  0  0  0  0
    2.2741   -0.6115    0.0000 N   0  0  0  0  0  0  0  0  0  0  0  0
    1.9497   -1.3700    0.0000 C   0  0  0  0  0  0  0  0  0  0  0  0
    1.1690   -1.6365    0.0000 C   0  0  0  0  0  0  0  0  0  0  0  0
    1.0094   -2.4460    0.0000 C   0  0  0  0  0  0  0  0  0  0  0  0
    1.6306   -2.9889    0.0000 C   0  0  0  0  0  0  0  0  0  0  0  0
    2.4113   -2.7224    0.0000 C   0  0  0  0  0  0  0  0  0  0  0  0
    2.5709   -1.9129    0.0000 C   0  0  0  0  0  0  0  0  0  0  0  0
    3.4977    0.0558    0.0000 C   0  0  3  0  0  0  0  0  0  0  0  0
    4.3063    0.3505    0.0000 C   0  0  0  0  0  0  0  0  0  0  0  0
    2.7405    0.3831    0.0000 C   0  0  0  0  0  0  0  0  0  0  0  0
    2.1818    0.9902    0.0000 O   0  0  0  0  0  0  0  0  0  0  0  0
    2.0783   -0.1090    0.0000 O   0  0  0  0  0  0  0  0  0  0  0  0
    1.3211    0.2183    0.0000 C   0  0  0  0  0  0  0  0  0  0  0  0
    3.2851    0.8529    0.0000 C   0  0  0  0  0  0  0  0  0  0  0  0
    2.4884    1.0673    0.0000 C   0  0  0  0  0  0  0  0  0  0  0  0
    2.2757    1.8644    0.0000 C   0  0  0  0  0  0  0  0  0  0  0  0
    2.8597    2.4471    0.0000 C   0  0  0  0  0  0  0  0  0  0  0  0
    3.6564    2.2327    0.0000 C   0  0  0  0  0  0  0  0  0  0  0  0
    3.8690    1.4356    0.0000 C   0  0  0  0  0  0  0  0  0  0  0  0
    4.6657    1.2213    0.0000 O   0  0  0  0  0  0  0  0  0  0  0  0
    5.2497    1.8040    0.0000 C   0  0  0  0  0  0  0  0  0  0  0  0
    2.4859    3.1826    0.0000 N   0  0  0  0  0  0  0  0  0  0  0  0
    2.8612    3.9173    0.0000 C   0  0  0  0  0  0  0  0  0  0  0  0
    1.6709    3.0544    0.0000 C   0  0  3  0  0  0  0  0  0  0  0  0
    1.5410    2.2397    0.0000 C   0  0  3  0  0  0  0  0  0  0  0  0
    2.0595    1.5980    0.0000 C   0  0  0  0  0  0  0  0  0  0  0  0
    1.6095    0.9066    0.0000 C   0  0  0  0  0  0  0  0  0  0  0  0
    0.6406    1.1301    0.0000 N   0  0  3  0  0  0  0  0  0  0  0  0
   -0.1299    0.8353    0.0000 C   0  0  0  0  0  0  0  0  0  0  0  0
   -0.7705    1.3552    0.0000 C   0  0  0  0  0  0  0  0  0  0  0  0
   -0.6406    2.1699    0.0000 C   0  0  0  0  0  0  0  0  0  0  0  0
    0.1299    2.4647    0.0000 C   0  0  3  0  0  0  0  0  0  0  0  0
   -0.5107    2.9846    0.0000 C   0  0  0  0  0  0  0  0  0  0  0  0
   -1.2812    2.6897    0.0000 C   0  0  0  0  0  0  0  0  0  0  0  0
    0.7705    1.9448    0.0000 C   0  0  3  0  0  0  0  0  0  0  0  0
    0.2598    3.2794    0.0000 C   0  0  3  0  0  0  0  0  0  0  0  0
   -0.3808    3.7993    0.0000 O   0  0  0  0  0  0  0  0  0  0  0  0
   -1.1513    3.5044    0.0000 C   0  0  0  0  0  0  0  0  0  0  0  0
   -1.7919    4.0243    0.0000 C   0  0  0  0  0  0  0  0  0  0  0  0
   -1.7353    2.9217    0.0000 O   0  0  0  0  0  0  0  0  0  0  0  0
    1.0304    3.5743    0.0000 C   0  0  3  0  0  0  0  0  0  0  0  0
    1.5275    4.2326    0.0000 O   0  0  0  0  0  0  0  0  0  0  0  0
    0.7626    4.3546    0.0000 C   0  0  0  0  0  0  0  0  0  0  0  0
   -0.0471    4.5129    0.0000 O   0  0  0  0  0  0  0  0  0  0  0  0
    1.3045    4.9767    0.0000 O   0  0  0  0  0  0  0  0  0  0  0  0
    1.0367    5.7570    0.0000 C   0  0  0  0  0  0  0  0  0  0  0  0
  1  2  1  0  0  0  0
  2  3  1  0  0  0  0
  3  4  1  0  0  0  0
  3  5  1  0  0  0  0
  3  9  1  0  0  0  0
  5  6  1  0  0  0  0
  6  7  1  0  0  0  0
  6 22  1  0  0  0  0
  7  8  1  0  0  0  0
  8  9  1  0  0  0  0
  8 10  1  0  0  0  0
 10 11  1  0  0  0  0
 11 12  1  0  0  0  0
 12 13  2  0  0  0  0
 12 20  1  0  0  0  0
 13 14  1  0  0  0  0
 13 21  1  0  0  0  0
 14 15  1  0  0  0  0
 15 16  2  0  0  0  0
 15 20  1  0  0  0  0
 16 17  1  0  0  0  0
 17 18  2  0  0  0  0
 18 19  1  0  0  0  0
 19 20  2  0  0  0  0
 21 22  1  0  0  0  0
 21 23  1  0  0  0  0
 21 27  1  0  0  0  0
 23 24  2  0  0  0  0
 23 25  1  0  0  0  0
 25 26  1  0  0  0  0
 27 28  2  0  0  0  0
 27 32  1  0  0  0  0
 28 29  1  0  0  0  0
 29 30  2  0  0  0  0
 29 38  1  0  0  0  0
 30 31  1  0  0  0  0
 30 35  1  0  0  0  0
 31 32  2  0  0  0  0
 32 33  1  0  0  0  0
 33 34  1  0  0  0  0
 35 36  1  0  0  0  0
 35 37  1  0  0  0  0
 37 38  1  0  0  0  0
 37 54  1  0  0  0  0
 38 39  1  0  0  0  0
 38 48  1  0  0  0  0
 39 40  1  0  0  0  0
 40 41  1  0  0  0  0
 41 42  1  0  0  0  0
 41 48  1  0  0  0  0
 42 43  1  0  0  0  0
 43 44  2  0  0  0  0
 44 45  1  0  0  0  0
 45 46  1  0  0  0  0
 45 48  1  0  0  0  0
 45 49  1  0  0  0  0
 46 47  1  0  0  0  0
 49 50  1  0  0  0  0
 49 54  1  0  0  0  0
 50 51  1  0  0  0  0
 51 52  1  0  0  0  0
 51 53  2  0  0  0  0
 54 55  1  0  0  0  0
 54 56  1  0  0  0  0
 56 57  2  0  0  0  0
 56 58  1  0  0  0  0
 58 59  1  0  0  0  0
M  END
$$$$

 OpenBabel12191814062D

 25 29  0  0  0  0  0  0  0  0999 V2000
    1.2601   -1.4409    0.0000 C   0  0  0  0  0  0  0  0  0  0  0  0
    0.5419   -1.0349    0.0000 C   0  0  0  0  0  0  0  0  0  0  0  0
    0.5345   -0.2099    0.0000 C   0  0  0  0  0  0  0  0  0  0  0  0
   -0.0280    0.4083    0.0000 C   0  0  0  0  0  0  0  0  0  0  0  0
    0.5691    1.0129    0.0000 C   0  0  3  0  0  0  0  0  0  0  0  0
    0.4777    1.8435    0.0000 C   0  0  0  0  0  0  0  0  0  0  0  0
    1.1999    1.4192    0.0000 N   0  0  3  0  0  0  0  0  0  0  0  0
    1.8961    1.9651    0.0000 C   0  0  0  0  0  0  0  0  0  0  0  0
    2.7346    1.8609    0.0000 C   0  0  0  0  0  0  0  0  0  0  0  0
    3.0970    1.0939    0.0000 C   0  0  0  0  0  0  0  0  0  0  0  0
    2.7926    0.3271    0.0000 C   0  0  0  0  0  0  0  0  0  0  0  0
    3.4277   -0.1994    0.0000 N   0  0  0  0  0  0  0  0  0  0  0  0
    4.1247    0.2420    0.0000 C   0  0  0  0  0  0  0  0  0  0  0  0
    4.9191    0.0194    0.0000 C   0  0  0  0  0  0  0  0  0  0  0  0
    5.5091    0.5961    0.0000 C   0  0  0  0  0  0  0  0  0  0  0  0
    5.3047    1.3954    0.0000 C   0  0  0  0  0  0  0  0  0  0  0  0
    4.5103    1.6180    0.0000 C   0  0  0  0  0  0  0  0  0  0  0  0
    3.9203    1.0413    0.0000 C   0  0  0  0  0  0  0  0  0  0  0  0
    1.9372    0.1895    0.0000 C   0  0  3  0  0  0  0  0  0  0  0  0
    1.4840    0.8778    0.0000 C   0  0  0  0  0  0  0  0  0  0  0  0
    1.1031    0.4383    0.0000 C   0  0  3  0  0  0  0  0  0  0  0  0
    1.8834   -0.6338    0.0000 C   0  0  0  0  0  0  0  0  0  0  0  0
    1.1436   -0.9988    0.0000 O   0  0  0  0  0  0  0  0  0  0  0  0
    2.5695   -1.0919    0.0000 O   0  0  0  0  0  0  0  0  0  0  0  0
    2.5158   -1.9152    0.0000 C   0  0  0  0  0  0  0  0  0  0  0  0
  1  2  1  0  0  0  0
  2  3  1  0  0  0  0
  3  4  2  0  0  0  0
  3 21  1  0  0  0  0
  4  5  1  0  0  0  0
  5  6  1  0  0  0  0
  5 20  1  0  0  0  0
  6  7  1  0  0  0  0
  7  8  1  0  0  0  0
  7 21  1  0  0  0  0
  8  9  1  0  0  0  0
  9 10  1  0  0  0  0
 10 11  2  0  0  0  0
 10 18  1  0  0  0  0
 11 12  1  0  0  0  0
 11 19  1  0  0  0  0
 12 13  1  0  0  0  0
 13 14  2  0  0  0  0
 13 18  1  0  0  0  0
 14 15  1  0  0  0  0
 15 16  2  0  0  0  0
 16 17  1  0  0  0  0
 17 18  2  0  0  0  0
 19 20  1  0  0  0  0
 19 21  1  0  0  0  0
 19 22  1  0  0  0  0
 22 23  2  0  0  0  0
 22 24  1  0  0  0  0
 24 25  1  0  0  0  0
M  END
$$$$

 OpenBabel12191814062D

 33 36  0  0  0  0  0  0  0  0999 V2000
    2.0367   -1.2991    0.0000 C   0  0  0  0  0  0  0  0  0  0  0  0
    2.7512   -1.7116    0.0000 C   0  0  0  0  0  0  0  0  0  0  0  0
    2.7512   -2.5366    0.0000 C   0  0  0  0  0  0  0  0  0  0  0  0
    3.4186   -3.0215    0.0000 N   0  0  0  0  0  0  0  0  0  0  0  0
    3.1637   -3.8062    0.0000 N   0  0  0  0  0  0  0  0  0  0  0  0
    3.6486   -4.4736    0.0000 C   0  0  0  0  0  0  0  0  0  0  0  0
    4.4691   -4.3874    0.0000 C   0  0  0  0  0  0  0  0  0  0  0  0
    4.9540   -5.0548    0.0000 C   0  0  0  0  0  0  0  0  0  0  0  0
    5.7745   -4.9686    0.0000 N   0  0  0  0  0  0  0  0  0  0  0  0
    6.1100   -4.2149    0.0000 C   0  0  0  0  0  0  0  0  0  0  0  0
    6.9305   -4.1286    0.0000 C   0  0  0  0  0  0  0  0  0  0  0  0
    7.4154   -4.7961    0.0000 N   0  0  0  0  0  0  0  0  0  0  0  0
    7.0799   -5.5498    0.0000 C   0  0  0  0  0  0  0  0  0  0  0  0
    6.2594   -5.6360    0.0000 C   0  0  0  0  0  0  0  0  0  0  0  0
    8.2359   -4.7098    0.0000 C   0  0  0  0  0  0  0  0  0  0  0  0
    8.5715   -3.9562    0.0000 C   0  0  0  0  0  0  0  0  0  0  0  0
    9.3920   -3.8699    0.0000 C   0  0  0  0  0  0  0  0  0  0  0  0
    9.8769   -4.5374    0.0000 C   0  0  0  0  0  0  0  0  0  0  0  0
    9.5413   -5.2911    0.0000 C   0  0  0  0  0  0  0  0  0  0  0  0
   10.0263   -5.9585    0.0000 Cl  0  0  0  0  0  0  0  0  0  0  0  0
    8.7208   -5.3773    0.0000 C   0  0  0  0  0  0  0  0  0  0  0  0
    2.3387   -3.8062    0.0000 C   0  0  0  0  0  0  0  0  0  0  0  0
    1.8538   -4.4736    0.0000 O   0  0  0  0  0  0  0  0  0  0  0  0
    2.0837   -3.0215    0.0000 N   0  0  0  0  0  0  0  0  0  0  0  0
    1.2991   -2.7666    0.0000 C   0  0  0  0  0  0  0  0  0  0  0  0
    1.1276   -1.9596    0.0000 C   0  0  0  0  0  0  0  0  0  0  0  0
    0.3430   -1.7047    0.0000 O   0  0  0  0  0  0  0  0  0  0  0  0
    0.1714   -0.8977    0.0000 C   0  0  0  0  0  0  0  0  0  0  0  0
   -0.6132   -0.6428    0.0000 C   0  0  0  0  0  0  0  0  0  0  0  0
   -0.7847    0.1642    0.0000 C   0  0  0  0  0  0  0  0  0  0  0  0
   -0.1716    0.7162    0.0000 C   0  0  0  0  0  0  0  0  0  0  0  0
    0.6130    0.4613    0.0000 C   0  0  0  0  0  0  0  0  0  0  0  0
    0.7845   -0.3457    0.0000 C   0  0  0  0  0  0  0  0  0  0  0  0
  1  2  1  0  0  0  0
  2  3  1  0  0  0  0
  3  4  2  0  0  0  0
  3 24  1  0  0  0  0
  4  5  1  0  0  0  0
  5  6  1  0  0  0  0
  5 22  1  0  0  0  0
  6  7  1  0  0  0  0
  7  8  1  0  0  0  0
  8  9  1  0  0  0  0
  9 10  1  0  0  0  0
  9 14  1  0  0  0  0
 10 11  1  0  0  0  0
 11 12  1  0  0  0  0
 12 13  1  0  0  0  0
 12 15  1  0  0  0  0
 13 14  1  0  0  0  0
 15 16  2  0  0  0  0
 15 21  1  0  0  0  0
 16 17  1  0  0  0  0
 17 18  2  0  0  0  0
 18 19  1  0  0  0  0
 19 20  1  0  0  0  0
 19 21  2  0  0  0  0
 22 23  2  0  0  0  0
 22 24  1  0  0  0  0
 24 25  1  0  0  0  0
 25 26  1  0  0  0  0
 26 27  1  0  0  0  0
 27 28  1  0  0  0  0
 28 29  2  0  0  0  0
 28 33  1  0  0  0  0
 29 30  1  0  0  0  0
 30 31  2  0  0  0  0
 31 32  1  0  0  0  0
 32 33  2  0  0  0  0
M  END
$$$$

 OpenBabel12191814062D

 33 37  0  0  0  0  0  0  0  0999 V2000
   -1.2812   -1.8647    0.0000 C   0  0  0  0  0  0  0  0  0  0  0  0
   -0.5107   -2.1596    0.0000 C   0  0  0  0  0  0  0  0  0  0  0  0
    0.1299   -1.6397    0.0000 C   0  0  3  0  0  0  0  0  0  0  0  0
   -0.6406   -1.3449    0.0000 C   0  0  0  0  0  0  0  0  0  0  0  0
   -0.7705   -0.5302    0.0000 C   0  0  0  0  0  0  0  0  0  0  0  0
   -0.1299   -0.0103    0.0000 C   0  0  0  0  0  0  0  0  0  0  0  0
    0.6406   -0.3051    0.0000 N   0  0  3  0  0  0  0  0  0  0  0  0
    1.6095   -0.0816    0.0000 C   0  0  0  0  0  0  0  0  0  0  0  0
    2.0595   -0.7730    0.0000 C   0  0  0  0  0  0  0  0  0  0  0  0
    1.5410   -1.4147    0.0000 C   0  0  3  0  0  0  0  0  0  0  0  0
    0.7705   -1.1198    0.0000 C   0  0  3  0  0  0  0  0  0  0  0  0
    1.6709   -2.2294    0.0000 C   0  0  3  0  0  0  0  0  0  0  0  0
    2.4859   -2.3576    0.0000 N   0  0  0  0  0  0  0  0  0  0  0  0
    2.8612   -3.0923    0.0000 C   0  0  0  0  0  0  0  0  0  0  0  0
    2.8597   -1.6221    0.0000 C   0  0  0  0  0  0  0  0  0  0  0  0
    3.6564   -1.4077    0.0000 C   0  0  0  0  0  0  0  0  0  0  0  0
    3.8690   -0.6106    0.0000 C   0  0  0  0  0  0  0  0  0  0  0  0
    4.6657   -0.3963    0.0000 O   0  0  0  0  0  0  0  0  0  0  0  0
    5.2497   -0.9790    0.0000 C   0  0  0  0  0  0  0  0  0  0  0  0
    3.2851   -0.0279    0.0000 C   0  0  0  0  0  0  0  0  0  0  0  0
    2.4884   -0.2423    0.0000 C   0  0  0  0  0  0  0  0  0  0  0  0
    2.2757   -1.0394    0.0000 C   0  0  0  0  0  0  0  0  0  0  0  0
    1.0304   -2.7493    0.0000 C   0  0  3  0  0  0  0  0  0  0  0  0
    0.6062   -3.4569    0.0000 O   0  0  0  0  0  0  0  0  0  0  0  0
    0.2598   -2.4544    0.0000 C   0  0  3  0  0  0  0  0  0  0  0  0
   -0.3808   -2.9743    0.0000 O   0  0  0  0  0  0  0  0  0  0  0  0
   -0.2508   -3.7890    0.0000 C   0  0  0  0  0  0  0  0  0  0  0  0
    0.5197   -4.0838    0.0000 C   0  0  0  0  0  0  0  0  0  0  0  0
   -0.8914   -4.3088    0.0000 O   0  0  0  0  0  0  0  0  0  0  0  0
    1.6536   -3.2898    0.0000 C   0  0  0  0  0  0  0  0  0  0  0  0
    2.4333   -3.0204    0.0000 O   0  0  0  0  0  0  0  0  0  0  0  0
    1.4970   -4.0999    0.0000 O   0  0  0  0  0  0  0  0  0  0  0  0
    2.1202   -4.6404    0.0000 C   0  0  0  0  0  0  0  0  0  0  0  0
  1  2  1  0  0  0  0
  2  3  1  0  0  0  0
  3  4  1  0  0  0  0
  3 11  1  0  0  0  0
  3 25  1  0  0  0  0
  4  5  2  0  0  0  0
  5  6  1  0  0  0  0
  6  7  1  0  0  0  0
  7  8  1  0  0  0  0
  7 11  1  0  0  0  0
  8  9  1  0  0  0  0
  9 10  1  0  0  0  0
 10 11  1  0  0  0  0
 10 12  1  0  0  0  0
 10 22  1  0  0  0  0
 12 13  1  0  0  0  0
 12 23  1  0  0  0  0
 13 14  1  0  0  0  0
 13 15  1  0  0  0  0
 15 16  2  0  0  0  0
 15 22  1  0  0  0  0
 16 17  1  0  0  0  0
 17 18  1  0  0  0  0
 17 20  2  0  0  0  0
 18 19  1  0  0  0  0
 20 21  1  0  0  0  0
 21 22  2  0  0  0  0
 23 24  1  0  0  0  0
 23 25  1  0  0  0  0
 23 30  1  0  0  0  0
 25 26  1  0  0  0  0
 26 27  1  0  0  0  0
 27 28  1  0  0  0  0
 27 29  2  0  0  0  0
 30 31  2  0  0  0  0
 30 32  1  0  0  0  0
 32 33  1  0  0  0  0
M  END
$$$$

 OpenBabel12191814062D

 53 58  0  0  0  0  0  0  0  0999 V2000
    1.3768   -0.0438    0.0000 C   0  0  0  0  0  0  0  0  0  0  0  0
    2.0913   -0.4563    0.0000 C   0  0  0  0  0  0  0  0  0  0  0  0
    2.0913   -1.2813    0.0000 C   0  0  0  0  0  0  0  0  0  0  0  0
    2.8057   -1.6938    0.0000 C   0  0  0  0  0  0  0  0  0  0  0  0
    2.8057   -2.5188    0.0000 C   0  0  0  0  0  0  0  0  0  0  0  0
    2.0913   -2.9313    0.0000 C   0  0  0  0  0  0  0  0  0  0  0  0
    1.3768   -2.5188    0.0000 C   0  0  0  0  0  0  0  0  0  0  0  0
    1.3768   -1.6938    0.0000 C   0  0  0  0  0  0  0  0  0  0  0  0
    0.6623   -1.2813    0.0000 N   0  3  0  0  0  0  0  0  0  0  0  0
    0.6623   -0.4563    0.0000 O   0  5  0  0  0  0  0  0  0  0  0  0
   -0.0521   -1.6938    0.0000 O   0  0  0  0  0  0  0  0  0  0  0  0
    3.5202   -1.2813    0.0000 C   0  0  3  0  0  0  0  0  0  0  0  0
    3.5202   -0.4563    0.0000 C   0  0  3  0  0  0  0  0  0  0  0  0
    2.8057   -0.0438    0.0000 C   0  0  0  0  0  0  0  0  0  0  0  0
    1.9853    0.0425    0.0000 O   0  0  0  0  0  0  0  0  0  0  0  0
    2.8057    0.7812    0.0000 O   0  0  0  0  0  0  0  0  0  0  0  0
    4.2347   -0.0438    0.0000 C   0  0  3  0  0  0  0  0  0  0  0  0
    3.7044    0.5882    0.0000 C   0  0  0  0  0  0  0  0  0  0  0  0
    4.5437    0.7212    0.0000 N   0  0  0  0  0  0  0  0  0  0  0  0
    4.0358    1.3713    0.0000 C   0  0  0  0  0  0  0  0  0  0  0  0
    4.3449    2.1362    0.0000 C   0  0  0  0  0  0  0  0  0  0  0  0
    3.8369    2.7863    0.0000 C   0  0  0  0  0  0  0  0  0  0  0  0
    4.1460    3.5512    0.0000 C   0  0  0  0  0  0  0  0  0  0  0  0
    4.9630    3.6661    0.0000 C   0  0  0  0  0  0  0  0  0  0  0  0
    5.4709    3.0160    0.0000 C   0  0  0  0  0  0  0  0  0  0  0  0
    5.1618    2.2510    0.0000 C   0  0  0  0  0  0  0  0  0  0  0  0
    5.3607    0.8360    0.0000 C   0  0  0  0  0  0  0  0  0  0  0  0
    5.6698    1.6009    0.0000 C   0  0  0  0  0  0  0  0  0  0  0  0
    6.4867    1.7157    0.0000 C   0  0  0  0  0  0  0  0  0  0  0  0
    6.9946    1.0656    0.0000 C   0  0  0  0  0  0  0  0  0  0  0  0
    6.6856    0.3007    0.0000 C   0  0  0  0  0  0  0  0  0  0  0  0
    5.8686    0.1859    0.0000 C   0  0  0  0  0  0  0  0  0  0  0  0
    4.9492   -0.4563    0.0000 N   0  0  0  0  0  0  0  0  0  0  0  0
    5.6636   -0.0438    0.0000 C   0  0  0  0  0  0  0  0  0  0  0  0
    6.3781   -0.4563    0.0000 C   0  0  0  0  0  0  0  0  0  0  0  0
    7.0926   -0.0438    0.0000 N   0  0  0  0  0  0  0  0  0  0  0  0
    7.0926    0.7812    0.0000 C   0  0  0  0  0  0  0  0  0  0  0  0
    7.8070    1.1937    0.0000 C   0  0  0  0  0  0  0  0  0  0  0  0
    8.5215    0.7812    0.0000 O   0  0  0  0  0  0  0  0  0  0  0  0
    8.5215   -0.0438    0.0000 C   0  0  0  0  0  0  0  0  0  0  0  0
    7.8070   -0.4563    0.0000 C   0  0  0  0  0  0  0  0  0  0  0  0
    4.9492   -1.2813    0.0000 C   0  0  0  0  0  0  0  0  0  0  0  0
    5.6636   -1.6938    0.0000 C   0  0  0  0  0  0  0  0  0  0  0  0
    4.2347   -1.6938    0.0000 C   0  0  0  0  0  0  0  0  0  0  0  0
    4.2347   -2.5188    0.0000 P   0  0  0  0  0  0  0  0  0  0  0  0
    3.4222   -2.3755    0.0000 O   0  0  0  0  0  0  0  0  0  0  0  0
    5.0471   -2.3755    0.0000 O   0  0  0  0  0  0  0  0  0  0  0  0
    5.5774   -3.0075    0.0000 C   0  0  0  0  0  0  0  0  0  0  0  0
    5.2953   -3.7827    0.0000 C   0  0  0  0  0  0  0  0  0  0  0  0
    6.1077   -3.9260    0.0000 C   0  0  0  0  0  0  0  0  0  0  0  0
    5.2953   -4.6077    0.0000 C   0  0  0  0  0  0  0  0  0  0  0  0
    4.4828   -3.9260    0.0000 C   0  0  0  0  0  0  0  0  0  0  0  0
    3.9525   -3.2940    0.0000 O   0  0  0  0  0  0  0  0  0  0  0  0
  1  2  1  0  0  0  0
  2  3  1  0  0  0  0
  3  4  2  0  0  0  0
  3  8  1  0  0  0  0
  4  5  1  0  0  0  0
  4 12  1  0  0  0  0
  5  6  2  0  0  0  0
  6  7  1  0  0  0  0
  7  8  2  0  0  0  0
  8  9  1  0  0  0  0
  9 10  1  0  0  0  0
  9 11  2  0  0  0  0
 12 13  1  0  0  0  0
 12 44  1  0  0  0  0
 13 14  1  0  0  0  0
 13 17  1  0  0  0  0
 14 15  1  0  0  0  0
 14 16  2  0  0  0  0
 17 18  1  0  0  0  0
 17 19  1  0  0  0  0
 17 33  1  0  0  0  0
 19 20  1  0  0  0  0
 19 27  1  0  0  0  0
 20 21  1  0  0  0  0
 21 22  2  0  0  0  0
 21 26  1  0  0  0  0
 22 23  1  0  0  0  0
 23 24  2  0  0  0  0
 24 25  1  0  0  0  0
 25 26  2  0  0  0  0
 27 28  2  0  0  0  0
 27 32  1  0  0  0  0
 28 29  1  0  0  0  0
 29 30  2  0  0  0  0
 30 31  1  0  0  0  0
 31 32  2  0  0  0  0
 33 34  1  0  0  0  0
 33 42  1  0  0  0  0
 34 35  1  0  0  0  0
 35 36  1  0  0  0  0
 36 37  1  0  0  0  0
 36 41  1  0  0  0  0
 37 38  1  0  0  0  0
 38 39  1  0  0  0  0
 39 40  1  0  0  0  0
 40 41  1  0  0  0  0
 42 43  1  0  0  0  0
 42 44  2  0  0  0  0
 44 45  1  0  0  0  0
 45 46  2  0  0  0  0
 45 47  1  0  0  0  0
 45 53  1  0  0  0  0
 47 48  1  0  0  0  0
 48 49  1  0  0  0  0
 49 50  1  0  0  0  0
 49 51  1  0  0  0  0
 49 52  1  0  0  0  0
 52 53  1  0  0  0  0
M  CHG  2   9   1  10  -1
M  END
$$$$

 OpenBabel12191814062D

 44 48  0  0  0  0  0  0  0  0999 V2000
    4.2868    0.8250    0.0000 C   0  0  0  0  0  0  0  0  0  0  0  0
    4.2868    0.0000    0.0000 C   0  0  0  0  0  0  0  0  0  0  0  0
    5.0013   -0.4125    0.0000 C   0  0  0  0  0  0  0  0  0  0  0  0
    5.7158    0.0000    0.0000 C   0  0  0  0  0  0  0  0  0  0  0  0
    6.4302   -0.4125    0.0000 C   0  0  0  0  0  0  0  0  0  0  0  0
    7.1447    0.0000    0.0000 O   0  0  0  0  0  0  0  0  0  0  0  0
    7.8592   -0.4125    0.0000 C   0  0  0  0  0  0  0  0  0  0  0  0
    8.5737    0.0000    0.0000 C   0  0  0  0  0  0  0  0  0  0  0  0
    9.2881   -0.4125    0.0000 C   0  0  0  0  0  0  0  0  0  0  0  0
   10.0026    0.0000    0.0000 N   0  0  0  0  0  0  0  0  0  0  0  0
   10.0026    0.8250    0.0000 C   0  0  0  0  0  0  0  0  0  0  0  0
   10.7171   -0.4125    0.0000 C   0  0  0  0  0  0  0  0  0  0  0  0
   11.4315    0.0000    0.0000 C   0  0  0  0  0  0  0  0  0  0  0  0
   11.4315    0.8250    0.0000 C   0  0  0  0  0  0  0  0  0  0  0  0
   12.1460    1.2375    0.0000 C   0  0  0  0  0  0  0  0  0  0  0  0
   12.8605    0.8250    0.0000 C   0  0  0  0  0  0  0  0  0  0  0  0
   13.5749    1.2375    0.0000 O   0  0  0  0  0  0  0  0  0  0  0  0
   14.2894    0.8250    0.0000 C   0  0  0  0  0  0  0  0  0  0  0  0
   12.8605    0.0000    0.0000 C   0  0  0  0  0  0  0  0  0  0  0  0
   13.5749   -0.4125    0.0000 O   0  0  0  0  0  0  0  0  0  0  0  0
   13.5749   -1.2375    0.0000 C   0  0  0  0  0  0  0  0  0  0  0  0
   12.1460   -0.4125    0.0000 C   0  0  0  0  0  0  0  0  0  0  0  0
    6.4302   -1.2375    0.0000 C   0  0  0  0  0  0  0  0  0  0  0  0
    5.7158   -1.6500    0.0000 C   0  0  0  0  0  0  0  0  0  0  0  0
    5.0013   -1.2375    0.0000 C   0  0  0  0  0  0  0  0  0  0  0  0
    4.2868   -1.6500    0.0000 N   0  0  0  0  0  0  0  0  0  0  0  0
    3.5724   -1.2375    0.0000 C   0  0  0  0  0  0  0  0  0  0  0  0
    3.5724   -0.4125    0.0000 O   0  0  0  0  0  0  0  0  0  0  0  0
    2.8579   -1.6500    0.0000 C   0  0  0  0  0  0  0  0  0  0  0  0
    2.8579   -2.4750    0.0000 C   0  0  0  0  0  0  0  0  0  0  0  0
    2.1434   -2.8875    0.0000 C   0  0  0  0  0  0  0  0  0  0  0  0
    1.4289   -2.4750    0.0000 C   0  0  0  0  0  0  0  0  0  0  0  0
    1.4289   -1.6500    0.0000 C   0  0  0  0  0  0  0  0  0  0  0  0
    0.7145   -1.2375    0.0000 C   0  0  0  0  0  0  0  0  0  0  0  0
    0.0000   -1.6500    0.0000 O   0  0  0  0  0  0  0  0  0  0  0  0
    0.7145   -0.4125    0.0000 C   0  0  0  0  0  0  0  0  0  0  0  0
    0.0000    0.0000    0.0000 C   0  0  0  0  0  0  0  0  0  0  0  0
   -0.7145   -0.4125    0.0000 F   0  0  0  0  0  0  0  0  0  0  0  0
    0.0000    0.8250    0.0000 C   0  0  0  0  0  0  0  0  0  0  0  0
    0.7145    1.2375    0.0000 C   0  0  0  0  0  0  0  0  0  0  0  0
    1.4289    0.8250    0.0000 C   0  0  0  0  0  0  0  0  0  0  0  0
    1.4289    0.0000    0.0000 C   0  0  0  0  0  0  0  0  0  0  0  0
    2.1434   -0.4125    0.0000 N   0  0  0  0  0  0  0  0  0  0  0  0
    2.1434   -1.2375    0.0000 C   0  0  0  0  0  0  0  0  0  0  0  0
  1  2  1  0  0  0  0
  2  3  1  0  0  0  0
  3  4  2  0  0  0  0
  3 25  1  0  0  0  0
  4  5  1  0  0  0  0
  5  6  1  0  0  0  0
  5 23  2  0  0  0  0
  6  7  1  0  0  0  0
  7  8  1  0  0  0  0
  8  9  1  0  0  0  0
  9 10  1  0  0  0  0
 10 11  1  0  0  0  0
 10 12  1  0  0  0  0
 12 13  1  0  0  0  0
 13 14  2  0  0  0  0
 13 22  1  0  0  0  0
 14 15  1  0  0  0  0
 15 16  2  0  0  0  0
 16 17  1  0  0  0  0
 16 19  1  0  0  0  0
 17 18  1  0  0  0  0
 19 20  1  0  0  0  0
 19 22  2  0  0  0  0
 20 21  1  0  0  0  0
 23 24  1  0  0  0  0
 24 25  2  0  0  0  0
 25 26  1  0  0  0  0
 26 27  1  0  0  0  0
 27 28  2  0  0  0  0
 27 29  1  0  0  0  0
 29 30  2  0  0  0  0
 29 44  1  0  0  0  0
 30 31  1  0  0  0  0
 31 32  2  0  0  0  0
 32 33  1  0  0  0  0
 33 34  1  0  0  0  0
 33 44  2  0  0  0  0
 34 35  2  0  0  0  0
 34 36  1  0  0  0  0
 36 37  2  0  0  0  0
 36 42  1  0  0  0  0
 37 38  1  0  0  0  0
 37 39  1  0  0  0  0
 39 40  2  0  0  0  0
 40 41  1  0  0  0  0
 41 42  2  0  0  0  0
 42 43  1  0  0  0  0
 43 44  1  0  0  0  0
M  END
$$$$

 OpenBabel12191814062D

 30 33  0  0  0  0  0  0  0  0999 V2000
   -2.1434   -3.7125    0.0000 C   0  0  0  0  0  0  0  0  0  0  0  0
   -2.1434   -2.8875    0.0000 C   0  0  0  0  0  0  0  0  0  0  0  0
   -1.4289   -2.4750    0.0000 C   0  0  0  0  0  0  0  0  0  0  0  0
   -1.4289   -1.6500    0.0000 C   0  0  0  0  0  0  0  0  0  0  0  0
   -0.7145   -1.2375    0.0000 C   0  0  0  0  0  0  0  0  0  0  0  0
    0.0000   -1.6500    0.0000 C   0  0  0  0  0  0  0  0  0  0  0  0
    0.0000   -2.4750    0.0000 C   0  0  0  0  0  0  0  0  0  0  0  0
   -0.7145   -2.8875    0.0000 C   0  0  0  0  0  0  0  0  0  0  0  0
    0.7145   -1.2375    0.0000 N   0  0  0  0  0  0  0  0  0  0  0  0
    0.7145   -0.4125    0.0000 C   0  0  3  0  0  0  0  0  0  0  0  0
    1.4289    0.0000    0.0000 N   0  0  0  0  0  0  0  0  0  0  0  0
    2.1434   -0.4125    0.0000 C   0  0  0  0  0  0  0  0  0  0  0  0
    2.8579    0.0000    0.0000 C   0  0  0  0  0  0  0  0  0  0  0  0
    3.5724   -0.4125    0.0000 C   0  0  0  0  0  0  0  0  0  0  0  0
    3.5724   -1.2375    0.0000 C   0  0  0  0  0  0  0  0  0  0  0  0
    2.8579   -1.6500    0.0000 C   0  0  0  0  0  0  0  0  0  0  0  0
    2.1434   -1.2375    0.0000 C   0  0  0  0  0  0  0  0  0  0  0  0
    1.4289   -1.6500    0.0000 C   0  0  0  0  0  0  0  0  0  0  0  0
    1.4289   -2.4750    0.0000 O   0  0  0  0  0  0  0  0  0  0  0  0
    0.0000    0.0000    0.0000 C   0  0  0  0  0  0  0  0  0  0  0  0
   -0.7145   -0.4125    0.0000 C   0  0  0  0  0  0  0  0  0  0  0  0
   -1.4289   -0.0000    0.0000 C   0  0  0  0  0  0  0  0  0  0  0  0
   -1.4289    0.8250    0.0000 C   0  0  0  0  0  0  0  0  0  0  0  0
   -2.1434    1.2375    0.0000 O   0  0  0  0  0  0  0  0  0  0  0  0
   -2.8579    0.8250    0.0000 C   0  0  0  0  0  0  0  0  0  0  0  0
   -3.5724    1.2375    0.0000 C   0  0  0  0  0  0  0  0  0  0  0  0
   -4.2868    0.8250    0.0000 C   0  0  0  0  0  0  0  0  0  0  0  0
   -3.5724    2.0625    0.0000 C   0  0  0  0  0  0  0  0  0  0  0  0
   -0.7145    1.2375    0.0000 C   0  0  0  0  0  0  0  0  0  0  0  0
    0.0000    0.8250    0.0000 C   0  0  0  0  0  0  0  0  0  0  0  0
  1  2  1  0  0  0  0
  2  3  1  0  0  0  0
  3  4  2  0  0  0  0
  3  8  1  0  0  0  0
  4  5  1  0  0  0  0
  5  6  2  0  0  0  0
  6  7  1  0  0  0  0
  6  9  1  0  0  0  0
  7  8  2  0  0  0  0
  9 10  1  0  0  0  0
  9 18  1  0  0  0  0
 10 11  1  0  0  0  0
 10 20  1  0  0  0  0
 11 12  1  0  0  0  0
 12 13  2  0  0  0  0
 12 17  1  0  0  0  0
 13 14  1  0  0  0  0
 14 15  2  0  0  0  0
 15 16  1  0  0  0  0
 16 17  2  0  0  0  0
 17 18  1  0  0  0  0
 18 19  2  0  0  0  0
 20 21  2  0  0  0  0
 20 30  1  0  0  0  0
 21 22  1  0  0  0  0
 22 23  2  0  0  0  0
 23 24  1  0  0  0  0
 23 29  1  0  0  0  0
 24 25  1  0  0  0  0
 25 26  1  0  0  0  0
 26 27  1  0  0  0  0
 26 28  1  0  0  0  0
 29 30  2  0  0  0  0
M  END
$$$$

 OpenBabel12191814062D

 25 27  0  0  0  0  0  0  0  0999 V2000
    1.4289   -6.6000    0.0000 C   0  0  0  0  0  0  0  0  0  0  0  0
    0.7145   -6.1875    0.0000 C   0  0  0  0  0  0  0  0  0  0  0  0
    0.7145   -5.3625    0.0000 C   0  0  0  0  0  0  0  0  0  0  0  0
    0.0000   -4.9500    0.0000 C   0  0  0  0  0  0  0  0  0  0  0  0
    0.0000   -4.1250    0.0000 C   0  0  0  0  0  0  0  0  0  0  0  0
    0.7145   -3.7125    0.0000 C   0  0  0  0  0  0  0  0  0  0  0  0
    0.7145   -2.8875    0.0000 C   0  0  0  0  0  0  0  0  0  0  0  0
    1.4289   -2.4750    0.0000 C   0  0  0  0  0  0  0  0  0  0  0  0
    1.4289   -1.6500    0.0000 C   0  0  3  0  0  0  0  0  0  0  0  0
    0.7145   -1.2375    0.0000 N   0  0  0  0  0  0  0  0  0  0  0  0
    0.0000   -1.6500    0.0000 C   0  0  0  0  0  0  0  0  0  0  0  0
    0.7145   -0.4125    0.0000 C   0  0  0  0  0  0  0  0  0  0  0  0
    1.4289    0.0000    0.0000 C   0  0  0  0  0  0  0  0  0  0  0  0
    2.1434   -0.4125    0.0000 C   0  0  0  0  0  0  0  0  0  0  0  0
    2.8579    0.0000    0.0000 C   0  0  0  0  0  0  0  0  0  0  0  0
    3.5724   -0.4125    0.0000 C   0  0  0  0  0  0  0  0  0  0  0  0
    4.2868   -0.0000    0.0000 O   0  0  0  0  0  0  0  0  0  0  0  0
    4.2868    0.8250    0.0000 C   0  0  0  0  0  0  0  0  0  0  0  0
    3.5724   -1.2375    0.0000 C   0  0  0  0  0  0  0  0  0  0  0  0
    4.2868   -1.6500    0.0000 O   0  0  0  0  0  0  0  0  0  0  0  0
    4.2868   -2.4750    0.0000 C   0  0  0  0  0  0  0  0  0  0  0  0
    2.8579   -1.6500    0.0000 C   0  0  0  0  0  0  0  0  0  0  0  0
    2.1434   -1.2375    0.0000 C   0  0  0  0  0  0  0  0  0  0  0  0
    1.4289   -4.1250    0.0000 C   0  0  0  0  0  0  0  0  0  0  0  0
    1.4289   -4.9500    0.0000 C   0  0  0  0  0  0  0  0  0  0  0  0
  1  2  1  0  0  0  0
  2  3  1  0  0  0  0
  3  4  2  0  0  0  0
  3 25  1  0  0  0  0
  4  5  1  0  0  0  0
  5  6  2  0  0  0  0
  6  7  1  0  0  0  0
  6 24  1  0  0  0  0
  7  8  1  0  0  0  0
  8  9  1  0  0  0  0
  9 10  1  0  0  0  0
  9 23  1  0  0  0  0
 10 11  1  0  0  0  0
 10 12  1  0  0  0  0
 12 13  1  0  0  0  0
 13 14  1  0  0  0  0
 14 15  2  0  0  0  0
 14 23  1  0  0  0  0
 15 16  1  0  0  0  0
 16 17  1  0  0  0  0
 16 19  2  0  0  0  0
 17 18  1  0  0  0  0
 19 20  1  0  0  0  0
 19 22  1  0  0  0  0
 20 21  1  0  0  0  0
 22 23  2  0  0  0  0
 24 25  2  0  0  0  0
M  END
$$$$

 OpenBabel12191814062D

 23 26  0  0  0  0  0  0  0  0999 V2000
    1.7447   -3.0280    0.0000 C   0  0  0  0  0  0  0  0  0  0  0  0
    2.5619   -3.1408    0.0000 C   0  0  0  0  0  0  0  0  0  0  0  0
    3.0683   -2.4895    0.0000 C   0  0  3  0  0  0  0  0  0  0  0  0
    2.8390   -1.6970    0.0000 C   0  0  0  0  0  0  0  0  0  0  0  0
    3.5218   -1.2340    0.0000 C   0  0  0  0  0  0  0  0  0  0  0  0
    4.1731   -1.7404    0.0000 C   0  0  3  0  0  0  0  0  0  0  0  0
    4.9853   -1.5952    0.0000 C   0  0  3  0  0  0  0  0  0  0  0  0
    5.2655   -0.8192    0.0000 C   0  0  0  0  0  0  0  0  0  0  0  0
    6.0777   -0.6740    0.0000 C   0  0  0  0  0  0  0  0  0  0  0  0
    6.6095   -1.3047    0.0000 C   0  0  3  0  0  0  0  0  0  0  0  0
    7.4216   -1.1595    0.0000 C   0  0  0  0  0  0  0  0  0  0  0  0
    7.9534   -1.7902    0.0000 C   0  0  0  0  0  0  0  0  0  0  0  0
    8.7655   -1.6450    0.0000 O   0  0  0  0  0  0  0  0  0  0  0  0
    7.6731   -2.5662    0.0000 C   0  0  0  0  0  0  0  0  0  0  0  0
    8.2049   -3.1969    0.0000 O   0  0  0  0  0  0  0  0  0  0  0  0
    6.8610   -2.7114    0.0000 C   0  0  0  0  0  0  0  0  0  0  0  0
    6.3292   -2.0807    0.0000 C   0  0  3  0  0  0  0  0  0  0  0  0
    6.0489   -2.8566    0.0000 C   0  0  0  0  0  0  0  0  0  0  0  0
    5.5171   -2.2259    0.0000 C   0  0  3  0  0  0  0  0  0  0  0  0
    5.2368   -3.0018    0.0000 C   0  0  0  0  0  0  0  0  0  0  0  0
    4.4247   -3.1470    0.0000 C   0  0  0  0  0  0  0  0  0  0  0  0
    3.8928   -2.5163    0.0000 C   0  0  3  0  0  0  0  0  0  0  0  0
    3.5330   -3.2587    0.0000 C   0  0  0  0  0  0  0  0  0  0  0  0
  1  2  1  0  0  0  0
  2  3  1  0  0  0  0
  3  4  1  0  0  0  0
  3 22  1  0  0  0  0
  4  5  1  0  0  0  0
  5  6  1  0  0  0  0
  6  7  1  0  0  0  0
  6 22  1  0  0  0  0
  7  8  1  0  0  0  0
  7 19  1  0  0  0  0
  8  9  1  0  0  0  0
  9 10  1  0  0  0  0
 10 11  1  0  0  0  0
 10 17  1  0  0  0  0
 11 12  1  0  0  0  0
 12 13  2  0  0  0  0
 12 14  1  0  0  0  0
 14 15  2  0  0  0  0
 14 16  1  0  0  0  0
 16 17  1  0  0  0  0
 17 18  1  0  0  0  0
 17 19  1  0  0  0  0
 19 20  1  0  0  0  0
 20 21  1  0  0  0  0
 21 22  1  0  0  0  0
 22 23  1  0  0  0  0
M  END
$$$$

 OpenBabel12191814062D

 19 20  0  0  0  0  0  0  0  0999 V2000
    3.9934    2.4750    0.0000 C   0  0  0  0  0  0  0  0  0  0  0  0
    3.2789    2.0625    0.0000 C   0  0  0  0  0  0  0  0  0  0  0  0
    3.2789    1.2375    0.0000 C   0  0  0  0  0  0  0  0  0  0  0  0
    3.9934    0.8250    0.0000 C   0  0  0  0  0  0  0  0  0  0  0  0
    3.9934    0.0000    0.0000 C   0  0  0  0  0  0  0  0  0  0  0  0
    3.2789   -0.4125    0.0000 C   0  0  0  0  0  0  0  0  0  0  0  0
    2.5645    0.0000    0.0000 C   0  0  0  0  0  0  0  0  0  0  0  0
    1.7798   -0.2549    0.0000 C   0  0  0  0  0  0  0  0  0  0  0  0
    1.2949    0.4125    0.0000 C   0  0  0  0  0  0  0  0  0  0  0  0
    1.7798    1.0799    0.0000 O   0  0  0  0  0  0  0  0  0  0  0  0
    2.5645    0.8250    0.0000 C   0  0  0  0  0  0  0  0  0  0  0  0
    0.4699    0.4125    0.0000 C   0  0  3  0  0  0  0  0  0  0  0  0
    0.0574    1.1270    0.0000 O   0  0  0  0  0  0  0  0  0  0  0  0
    0.0574   -0.3020    0.0000 C   0  0  0  0  0  0  0  0  0  0  0  0
   -0.7676   -0.3020    0.0000 N   0  0  0  0  0  0  0  0  0  0  0  0
   -1.1801   -1.0164    0.0000 C   0  0  0  0  0  0  0  0  0  0  0  0
   -1.5926   -1.7309    0.0000 C   0  0  0  0  0  0  0  0  0  0  0  0
   -1.8946   -0.6039    0.0000 C   0  0  0  0  0  0  0  0  0  0  0  0
   -0.4656   -1.4289    0.0000 C   0  0  0  0  0  0  0  0  0  0  0  0
  1  2  1  0  0  0  0
  2  3  1  0  0  0  0
  3  4  2  0  0  0  0
  3 11  1  0  0  0  0
  4  5  1  0  0  0  0
  5  6  2  0  0  0  0
  6  7  1  0  0  0  0
  7  8  1  0  0  0  0
  7 11  2  0  0  0  0
  8  9  2  0  0  0  0
  9 10  1  0  0  0  0
  9 12  1  0  0  0  0
 10 11  1  0  0  0  0
 12 13  1  0  0  0  0
 12 14  1  0  0  0  0
 14 15  1  0  0  0  0
 15 16  1  0  0  0  0
 16 17  1  0  0  0  0
 16 18  1  0  0  0  0
 16 19  1  0  0  0  0
M  END
$$$$

 OpenBabel12191814062D

 28 31  0  0  0  0  0  0  0  0999 V2000
    3.1464   -2.6416    0.0000 C   0  0  0  0  0  0  0  0  0  0  0  0
    3.1464   -1.8166    0.0000 C   0  0  0  0  0  0  0  0  0  0  0  0
    3.8608   -1.4041    0.0000 C   0  0  3  0  0  0  0  0  0  0  0  0
    3.8608   -0.5791    0.0000 C   0  0  0  0  0  0  0  0  0  0  0  0
    4.5753   -0.1666    0.0000 N   0  0  3  0  0  0  0  0  0  0  0  0
    4.7128   -0.7166    0.0000 C   0  0  0  0  0  0  0  0  0  0  0  0
    4.7128   -1.2666    0.0000 C   0  0  0  0  0  0  0  0  0  0  0  0
    4.5753   -1.8166    0.0000 C   0  0  3  0  0  0  0  0  0  0  0  0
    5.2898   -1.4041    0.0000 C   0  0  0  0  0  0  0  0  0  0  0  0
    5.2898   -0.5791    0.0000 C   0  0  3  0  0  0  0  0  0  0  0  0
    6.0043   -0.1666    0.0000 C   0  0  3  0  0  0  0  0  0  0  0  0
    6.7187   -0.5791    0.0000 O   0  0  0  0  0  0  0  0  0  0  0  0
    6.0043    0.6584    0.0000 C   0  0  0  0  0  0  0  0  0  0  0  0
    5.2898    1.0709    0.0000 C   0  0  0  0  0  0  0  0  0  0  0  0
    5.2898    1.8959    0.0000 C   0  0  0  0  0  0  0  0  0  0  0  0
    6.0043    2.3084    0.0000 N   0  0  0  0  0  0  0  0  0  0  0  0
    6.7187    1.8959    0.0000 C   0  0  0  0  0  0  0  0  0  0  0  0
    7.4332    2.3084    0.0000 C   0  0  0  0  0  0  0  0  0  0  0  0
    8.1477    1.8959    0.0000 C   0  0  0  0  0  0  0  0  0  0  0  0
    8.1477    1.0709    0.0000 C   0  0  0  0  0  0  0  0  0  0  0  0
    8.8621    0.6584    0.0000 O   0  0  0  0  0  0  0  0  0  0  0  0
    8.8621   -0.1666    0.0000 C   0  0  0  0  0  0  0  0  0  0  0  0
    9.5766   -0.5791    0.0000 C   0  0  0  0  0  0  0  0  0  0  0  0
   10.2911   -0.1666    0.0000 C   0  0  0  0  0  0  0  0  0  0  0  0
   10.2911    0.6584    0.0000 C   0  0  0  0  0  0  0  0  0  0  0  0
   11.0055   -0.5791    0.0000 C   0  0  0  0  0  0  0  0  0  0  0  0
    7.4332    0.6584    0.0000 C   0  0  0  0  0  0  0  0  0  0  0  0
    6.7187    1.0709    0.0000 C   0  0  0  0  0  0  0  0  0  0  0  0
  1  2  1  0  0  0  0
  2  3  1  0  0  0  0
  3  4  1  0  0  0  0
  3  8  1  0  0  0  0
  4  5  1  0  0  0  0
  5  6  1  0  0  0  0
  5 10  1  0  0  0  0
  6  7  1  0  0  0  0
  7  8  1  0  0  0  0
  8  9  1  0  0  0  0
  9 10  1  0  0  0  0
 10 11  1  0  0  0  0
 11 12  1  0  0  0  0
 11 13  1  0  0  0  0
 13 14  2  0  0  0  0
 13 28  1  0  0  0  0
 14 15  1  0  0  0  0
 15 16  2  0  0  0  0
 16 17  1  0  0  0  0
 17 18  2  0  0  0  0
 17 28  1  0  0  0  0
 18 19  1  0  0  0  0
 19 20  2  0  0  0  0
 20 21  1  0  0  0  0
 20 27  1  0  0  0  0
 21 22  1  0  0  0  0
 22 23  1  0  0  0  0
 23 24  1  0  0  0  0
 24 25  1  0  0  0  0
 24 26  1  0  0  0  0
 27 28  2  0  0  0  0
M  END
$$$$

 OpenBabel12191814062D

 19 20  0  0  0  0  0  0  0  0999 V2000
   -0.7145   -0.4125    0.0000 C   0  0  0  0  0  0  0  0  0  0  0  0
    0.0000    0.0000    0.0000 C   0  0  0  0  0  0  0  0  0  0  0  0
    0.7145   -0.4125    0.0000 C   0  0  3  0  0  0  0  0  0  0  0  0
    1.4289    0.0000    0.0000 N   0  0  0  0  0  0  0  0  0  0  0  0
    1.4289    0.8250    0.0000 C   0  0  0  0  0  0  0  0  0  0  0  0
    2.1434    1.2375    0.0000 O   0  0  0  0  0  0  0  0  0  0  0  0
    0.7145    1.2375    0.0000 C   0  0  0  0  0  0  0  0  0  0  0  0
    0.7145    2.0625    0.0000 C   0  0  0  0  0  0  0  0  0  0  0  0
    0.0000    2.4750    0.0000 C   0  0  0  0  0  0  0  0  0  0  0  0
    1.4289    2.4750    0.0000 C   0  0  0  0  0  0  0  0  0  0  0  0
    2.1434   -0.4125    0.0000 C   0  0  0  0  0  0  0  0  0  0  0  0
    2.8579    0.0000    0.0000 C   0  0  0  0  0  0  0  0  0  0  0  0
    3.5724   -0.4125    0.0000 C   0  0  0  0  0  0  0  0  0  0  0  0
    3.5724   -1.2375    0.0000 C   0  0  0  0  0  0  0  0  0  0  0  0
    2.8579   -1.6500    0.0000 C   0  0  0  0  0  0  0  0  0  0  0  0
    2.1434   -1.2375    0.0000 C   0  0  0  0  0  0  0  0  0  0  0  0
    1.4289   -1.6500    0.0000 N   0  0  0  0  0  0  0  0  0  0  0  0
    0.7145   -1.2375    0.0000 C   0  0  0  0  0  0  0  0  0  0  0  0
    0.0000   -1.6500    0.0000 O   0  0  0  0  0  0  0  0  0  0  0  0
  1  2  1  0  0  0  0
  2  3  1  0  0  0  0
  3  4  1  0  0  0  0
  3 18  1  0  0  0  0
  4  5  1  0  0  0  0
  4 11  1  0  0  0  0
  5  6  2  0  0  0  0
  5  7  1  0  0  0  0
  7  8  1  0  0  0  0
  8  9  1  0  0  0  0
  8 10  1  0  0  0  0
 11 12  2  0  0  0  0
 11 16  1  0  0  0  0
 12 13  1  0  0  0  0
 13 14  2  0  0  0  0
 14 15  1  0  0  0  0
 15 16  2  0  0  0  0
 16 17  1  0  0  0  0
 17 18  1  0  0  0  0
 18 19  2  0  0  0  0
M  END
$$$$

 OpenBabel12191814062D

 85 85  0  0  0  0  0  0  0  0999 V2000
   -0.8657    2.7433    0.0000 C   0  0  0  0  0  0  0  0  0  0  0  0
   -0.4876    2.0100    0.0000 C   0  0  0  0  0  0  0  0  0  0  0  0
    0.3364    1.9708    0.0000 C   0  0  3  0  0  0  0  0  0  0  0  0
    0.7145    1.2375    0.0000 N   0  0  0  0  0  0  0  0  0  0  0  0
    0.0000    0.8250    0.0000 C   0  0  0  0  0  0  0  0  0  0  0  0
   -0.7145    1.2375    0.0000 O   0  0  0  0  0  0  0  0  0  0  0  0
    0.0000    0.0000    0.0000 C   0  0  3  0  0  0  0  0  0  0  0  0
   -0.7145   -0.4125    0.0000 C   0  0  3  0  0  0  0  0  0  0  0  0
   -0.7145   -1.2375    0.0000 O   0  0  0  0  0  0  0  0  0  0  0  0
   -1.4289    0.0000    0.0000 C   0  0  3  0  0  0  0  0  0  0  0  0
   -2.1434   -0.4125    0.0000 C   0  0  0  0  0  0  0  0  0  0  0  0
   -1.4289    0.8250    0.0000 C   0  0  0  0  0  0  0  0  0  0  0  0
   -2.1434    1.2375    0.0000 C   0  0  0  0  0  0  0  0  0  0  0  0
   -2.1434    2.0625    0.0000 C   0  0  0  0  0  0  0  0  0  0  0  0
   -2.8579    2.4750    0.0000 C   0  0  0  0  0  0  0  0  0  0  0  0
    0.7145   -0.4125    0.0000 N   0  0  0  0  0  0  0  0  0  0  0  0
    1.5061   -0.1801    0.0000 C   0  0  0  0  0  0  0  0  0  0  0  0
    0.3364   -1.1458    0.0000 C   0  0  0  0  0  0  0  0  0  0  0  0
   -0.4352   -1.4378    0.0000 O   0  0  0  0  0  0  0  0  0  0  0  0
    0.7825   -1.8398    0.0000 C   0  0  3  0  0  0  0  0  0  0  0  0
    0.4044   -2.5731    0.0000 C   0  0  0  0  0  0  0  0  0  0  0  0
    0.8505   -3.2671    0.0000 C   0  0  0  0  0  0  0  0  0  0  0  0
   -0.4196   -2.6124    0.0000 C   0  0  0  0  0  0  0  0  0  0  0  0
    1.6065   -1.8006    0.0000 N   0  0  0  0  0  0  0  0  0  0  0  0
    2.1468   -1.1771    0.0000 C   0  0  0  0  0  0  0  0  0  0  0  0
    1.6849   -2.6218    0.0000 C   0  0  0  0  0  0  0  0  0  0  0  0
    1.1937   -3.2846    0.0000 O   0  0  0  0  0  0  0  0  0  0  0  0
    2.4354   -2.9646    0.0000 C   0  0  3  0  0  0  0  0  0  0  0  0
    2.5138   -3.7858    0.0000 C   0  0  0  0  0  0  0  0  0  0  0  0
    1.8418   -4.2644    0.0000 C   0  0  0  0  0  0  0  0  0  0  0  0
    1.9202   -5.0856    0.0000 C   0  0  0  0  0  0  0  0  0  0  0  0
    1.0913   -3.9216    0.0000 C   0  0  0  0  0  0  0  0  0  0  0  0
    3.1074   -2.4860    0.0000 N   0  0  0  0  0  0  0  0  0  0  0  0
    3.2248   -1.6694    0.0000 C   0  0  0  0  0  0  0  0  0  0  0  0
    3.6174   -3.1345    0.0000 C   0  0  0  0  0  0  0  0  0  0  0  0
    3.3108   -3.9004    0.0000 O   0  0  0  0  0  0  0  0  0  0  0  0
    4.4340   -3.0171    0.0000 C   0  0  3  0  0  0  0  0  0  0  0  0
    4.9440   -3.6656    0.0000 C   0  0  0  0  0  0  0  0  0  0  0  0
    4.6374   -4.4315    0.0000 C   0  0  0  0  0  0  0  0  0  0  0  0
    5.1473   -5.0800    0.0000 C   0  0  0  0  0  0  0  0  0  0  0  0
    3.8208   -4.5489    0.0000 C   0  0  0  0  0  0  0  0  0  0  0  0
    4.7406   -2.2512    0.0000 N   0  0  0  0  0  0  0  0  0  0  0  0
    4.3979   -1.5007    0.0000 C   0  0  0  0  0  0  0  0  0  0  0  0
    5.5203   -2.5210    0.0000 C   0  0  0  0  0  0  0  0  0  0  0  0
    5.6764   -3.3311    0.0000 O   0  0  0  0  0  0  0  0  0  0  0  0
    6.1437   -1.9808    0.0000 C   0  0  3  0  0  0  0  0  0  0  0  0
    6.9234   -2.2506    0.0000 C   0  0  0  0  0  0  0  0  0  0  0  0
    5.9876   -1.1707    0.0000 N   0  0  0  0  0  0  0  0  0  0  0  0
    6.7894   -0.9762    0.0000 C   0  0  0  0  0  0  0  0  0  0  0  0
    7.3587   -1.5732    0.0000 O   0  0  0  0  0  0  0  0  0  0  0  0
    7.0218   -0.1846    0.0000 C   0  0  3  0  0  0  0  0  0  0  0  0
    7.8235    0.0099    0.0000 C   0  0  0  0  0  0  0  0  0  0  0  0
    6.4525    0.4125    0.0000 N   0  0  0  0  0  0  0  0  0  0  0  0
    7.0218    1.0096    0.0000 C   0  0  0  0  0  0  0  0  0  0  0  0
    7.8235    0.8151    0.0000 O   0  0  0  0  0  0  0  0  0  0  0  0
    6.7894    1.8012    0.0000 C   0  0  3  0  0  0  0  0  0  0  0  0
    7.3587    2.3982    0.0000 C   0  0  0  0  0  0  0  0  0  0  0  0
    8.1604    2.2037    0.0000 C   0  0  0  0  0  0  0  0  0  0  0  0
    8.7297    2.8008    0.0000 C   0  0  0  0  0  0  0  0  0  0  0  0
    8.3928    1.4122    0.0000 C   0  0  0  0  0  0  0  0  0  0  0  0
    5.9876    1.9957    0.0000 N   0  0  0  0  0  0  0  0  0  0  0  0
    5.2936    1.5496    0.0000 C   0  0  0  0  0  0  0  0  0  0  0  0
    6.1437    2.8058    0.0000 C   0  0  0  0  0  0  0  0  0  0  0  0
    6.9234    3.0756    0.0000 O   0  0  0  0  0  0  0  0  0  0  0  0
    5.5203    3.3460    0.0000 C   0  0  3  0  0  0  0  0  0  0  0  0
    4.7406    3.0762    0.0000 N   0  0  0  0  0  0  0  0  0  0  0  0
    4.4340    3.8421    0.0000 C   0  0  0  0  0  0  0  0  0  0  0  0
    4.9440    4.4906    0.0000 O   0  0  0  0  0  0  0  0  0  0  0  0
    3.6174    3.9595    0.0000 C   0  0  3  0  0  0  0  0  0  0  0  0
    3.3108    4.7254    0.0000 C   0  0  0  0  0  0  0  0  0  0  0  0
    3.8208    5.3739    0.0000 C   0  0  0  0  0  0  0  0  0  0  0  0
    3.5141    6.1398    0.0000 C   0  0  0  0  0  0  0  0  0  0  0  0
    4.6374    5.2565    0.0000 C   0  0  0  0  0  0  0  0  0  0  0  0
    3.1074    3.3110    0.0000 N   0  0  0  0  0  0  0  0  0  0  0  0
    3.2248    2.4944    0.0000 C   0  0  0  0  0  0  0  0  0  0  0  0
    2.4354    3.7896    0.0000 C   0  0  0  0  0  0  0  0  0  0  0  0
    2.5138    4.6108    0.0000 O   0  0  0  0  0  0  0  0  0  0  0  0
    1.6849    3.4468    0.0000 C   0  0  0  0  0  0  0  0  0  0  0  0
    1.6065    2.6256    0.0000 N   0  0  0  0  0  0  0  0  0  0  0  0
    2.1468    2.0021    0.0000 C   0  0  0  0  0  0  0  0  0  0  0  0
    0.7825    2.6648    0.0000 C   0  0  0  0  0  0  0  0  0  0  0  0
    0.4044    3.3981    0.0000 O   0  0  0  0  0  0  0  0  0  0  0  0
    5.6764    4.1561    0.0000 C   0  0  0  0  0  0  0  0  0  0  0  0
    5.2504    4.8626    0.0000 C   0  0  0  0  0  0  0  0  0  0  0  0
    6.4560    4.4259    0.0000 C   0  0  0  0  0  0  0  0  0  0  0  0
  1  2  1  0  0  0  0
  2  3  1  0  0  0  0
  3  4  1  0  0  0  0
  3 81  1  0  0  0  0
  4  5  1  0  0  0  0
  5  6  2  0  0  0  0
  5  7  1  0  0  0  0
  7  8  1  0  0  0  0
  7 16  1  0  0  0  0
  8  9  1  0  0  0  0
  8 10  1  0  0  0  0
 10 11  1  0  0  0  0
 10 12  1  0  0  0  0
 12 13  1  0  0  0  0
 13 14  2  0  0  0  0
 14 15  1  0  0  0  0
 16 17  1  0  0  0  0
 16 18  1  0  0  0  0
 18 19  2  0  0  0  0
 18 20  1  0  0  0  0
 20 21  1  0  0  0  0
 20 24  1  0  0  0  0
 21 22  1  0  0  0  0
 21 23  1  0  0  0  0
 24 25  1  0  0  0  0
 24 26  1  0  0  0  0
 26 27  2  0  0  0  0
 26 28  1  0  0  0  0
 28 29  1  0  0  0  0
 28 33  1  0  0  0  0
 29 30  1  0  0  0  0
 30 31  1  0  0  0  0
 30 32  1  0  0  0  0
 33 34  1  0  0  0  0
 33 35  1  0  0  0  0
 35 36  2  0  0  0  0
 35 37  1  0  0  0  0
 37 38  1  0  0  0  0
 37 42  1  0  0  0  0
 38 39  1  0  0  0  0
 39 40  1  0  0  0  0
 39 41  1  0  0  0  0
 42 43  1  0  0  0  0
 42 44  1  0  0  0  0
 44 45  2  0  0  0  0
 44 46  1  0  0  0  0
 46 47  1  0  0  0  0
 46 48  1  0  0  0  0
 48 49  1  0  0  0  0
 49 50  2  0  0  0  0
 49 51  1  0  0  0  0
 51 52  1  0  0  0  0
 51 53  1  0  0  0  0
 53 54  1  0  0  0  0
 54 55  2  0  0  0  0
 54 56  1  0  0  0  0
 56 57  1  0  0  0  0
 56 61  1  0  0  0  0
 57 58  1  0  0  0  0
 58 59  1  0  0  0  0
 58 60  1  0  0  0  0
 61 62  1  0  0  0  0
 61 63  1  0  0  0  0
 63 64  2  0  0  0  0
 63 65  1  0  0  0  0
 65 66  1  0  0  0  0
 65 83  1  0  0  0  0
 66 67  1  0  0  0  0
 67 68  2  0  0  0  0
 67 69  1  0  0  0  0
 69 70  1  0  0  0  0
 69 74  1  0  0  0  0
 70 71  1  0  0  0  0
 71 72  1  0  0  0  0
 71 73  1  0  0  0  0
 74 75  1  0  0  0  0
 74 76  1  0  0  0  0
 76 77  2  0  0  0  0
 76 78  1  0  0  0  0
 78 79  1  0  0  0  0
 79 80  1  0  0  0  0
 79 81  1  0  0  0  0
 81 82  2  0  0  0  0
 83 84  1  0  0  0  0
 83 85  1  0  0  0  0
M  END
$$$$

 OpenBabel12191814062D

 86 86  0  0  0  0  0  0  0  0999 V2000
   -0.8657    2.7433    0.0000 C   0  0  0  0  0  0  0  0  0  0  0  0
   -0.4876    2.0100    0.0000 C   0  0  0  0  0  0  0  0  0  0  0  0
    0.3364    1.9708    0.0000 C   0  0  3  0  0  0  0  0  0  0  0  0
    0.7145    1.2375    0.0000 N   0  0  0  0  0  0  0  0  0  0  0  0
    0.0000    0.8250    0.0000 C   0  0  0  0  0  0  0  0  0  0  0  0
   -0.7145    1.2375    0.0000 O   0  0  0  0  0  0  0  0  0  0  0  0
    0.0000    0.0000    0.0000 C   0  0  3  0  0  0  0  0  0  0  0  0
   -0.7145   -0.4125    0.0000 C   0  0  3  0  0  0  0  0  0  0  0  0
   -0.7145   -1.2375    0.0000 O   0  0  0  0  0  0  0  0  0  0  0  0
   -1.4289    0.0000    0.0000 C   0  0  3  0  0  0  0  0  0  0  0  0
   -2.1434   -0.4125    0.0000 C   0  0  0  0  0  0  0  0  0  0  0  0
   -1.4289    0.8250    0.0000 C   0  0  0  0  0  0  0  0  0  0  0  0
   -2.1434    1.2375    0.0000 C   0  0  0  0  0  0  0  0  0  0  0  0
   -2.1434    2.0625    0.0000 C   0  0  0  0  0  0  0  0  0  0  0  0
   -2.8579    2.4750    0.0000 C   0  0  0  0  0  0  0  0  0  0  0  0
    0.7145   -0.4125    0.0000 N   0  0  0  0  0  0  0  0  0  0  0  0
    1.5061   -0.1801    0.0000 C   0  0  0  0  0  0  0  0  0  0  0  0
    0.3364   -1.1458    0.0000 C   0  0  0  0  0  0  0  0  0  0  0  0
   -0.4352   -1.4378    0.0000 O   0  0  0  0  0  0  0  0  0  0  0  0
    0.7825   -1.8398    0.0000 C   0  0  3  0  0  0  0  0  0  0  0  0
    0.4044   -2.5731    0.0000 C   0  0  0  0  0  0  0  0  0  0  0  0
   -0.4196   -2.6124    0.0000 C   0  0  0  0  0  0  0  0  0  0  0  0
   -0.7977   -3.3457    0.0000 C   0  0  0  0  0  0  0  0  0  0  0  0
   -0.8657   -1.9183    0.0000 C   0  0  0  0  0  0  0  0  0  0  0  0
    1.6065   -1.8006    0.0000 N   0  0  0  0  0  0  0  0  0  0  0  0
    2.1468   -1.1771    0.0000 C   0  0  0  0  0  0  0  0  0  0  0  0
    1.6849   -2.6218    0.0000 C   0  0  0  0  0  0  0  0  0  0  0  0
    1.0129   -3.1004    0.0000 O   0  0  0  0  0  0  0  0  0  0  0  0
    2.4354   -2.9646    0.0000 C   0  0  3  0  0  0  0  0  0  0  0  0
    2.5138   -3.7858    0.0000 C   0  0  0  0  0  0  0  0  0  0  0  0
    1.8418   -4.2644    0.0000 C   0  0  0  0  0  0  0  0  0  0  0  0
    1.9202   -5.0856    0.0000 C   0  0  0  0  0  0  0  0  0  0  0  0
    1.0913   -3.9216    0.0000 C   0  0  0  0  0  0  0  0  0  0  0  0
    3.1074   -2.4860    0.0000 N   0  0  0  0  0  0  0  0  0  0  0  0
    3.2248   -1.6694    0.0000 C   0  0  0  0  0  0  0  0  0  0  0  0
    3.6174   -3.1345    0.0000 C   0  0  0  0  0  0  0  0  0  0  0  0
    3.3108   -3.9004    0.0000 O   0  0  0  0  0  0  0  0  0  0  0  0
    4.4340   -3.0171    0.0000 C   0  0  3  0  0  0  0  0  0  0  0  0
    4.9440   -3.6656    0.0000 C   0  0  0  0  0  0  0  0  0  0  0  0
    4.6374   -4.4315    0.0000 C   0  0  0  0  0  0  0  0  0  0  0  0
    5.1473   -5.0800    0.0000 C   0  0  0  0  0  0  0  0  0  0  0  0
    3.8208   -4.5489    0.0000 C   0  0  0  0  0  0  0  0  0  0  0  0
    4.7406   -2.2512    0.0000 N   0  0  0  0  0  0  0  0  0  0  0  0
    4.3979   -1.5007    0.0000 C   0  0  0  0  0  0  0  0  0  0  0  0
    5.5203   -2.5210    0.0000 C   0  0  0  0  0  0  0  0  0  0  0  0
    5.6764   -3.3311    0.0000 O   0  0  0  0  0  0  0  0  0  0  0  0
    6.1437   -1.9808    0.0000 C   0  0  3  0  0  0  0  0  0  0  0  0
    6.9234   -2.2506    0.0000 C   0  0  0  0  0  0  0  0  0  0  0  0
    5.9876   -1.1707    0.0000 N   0  0  0  0  0  0  0  0  0  0  0  0
    6.7894   -0.9762    0.0000 C   0  0  0  0  0  0  0  0  0  0  0  0
    7.3587   -1.5732    0.0000 O   0  0  0  0  0  0  0  0  0  0  0  0
    7.0218   -0.1846    0.0000 C   0  0  3  0  0  0  0  0  0  0  0  0
    7.8235    0.0099    0.0000 C   0  0  0  0  0  0  0  0  0  0  0  0
    6.4525    0.4125    0.0000 N   0  0  0  0  0  0  0  0  0  0  0  0
    7.0218    1.0096    0.0000 C   0  0  0  0  0  0  0  0  0  0  0  0
    7.8235    0.8151    0.0000 O   0  0  0  0  0  0  0  0  0  0  0  0
    6.7894    1.8012    0.0000 C   0  0  3  0  0  0  0  0  0  0  0  0
    7.3587    2.3982    0.0000 C   0  0  0  0  0  0  0  0  0  0  0  0
    8.1604    2.2037    0.0000 C   0  0  0  0  0  0  0  0  0  0  0  0
    8.7297    2.8008    0.0000 C   0  0  0  0  0  0  0  0  0  0  0  0
    8.3928    1.4122    0.0000 C   0  0  0  0  0  0  0  0  0  0  0  0
    5.9876    1.9957    0.0000 N   0  0  0  0  0  0  0  0  0  0  0  0
    5.2936    1.5496    0.0000 C   0  0  0  0  0  0  0  0  0  0  0  0
    6.1437    2.8058    0.0000 C   0  0  0  0  0  0  0  0  0  0  0  0
    6.9234    3.0756    0.0000 O   0  0  0  0  0  0  0  0  0  0  0  0
    5.5203    3.3460    0.0000 C   0  0  3  0  0  0  0  0  0  0  0  0
    4.7406    3.0762    0.0000 N   0  0  0  0  0  0  0  0  0  0  0  0
    4.4340    3.8421    0.0000 C   0  0  0  0  0  0  0  0  0  0  0  0
    4.9440    4.4906    0.0000 O   0  0  0  0  0  0  0  0  0  0  0  0
    3.6174    3.9595    0.0000 C   0  0  3  0  0  0  0  0  0  0  0  0
    3.3108    4.7254    0.0000 C   0  0  0  0  0  0  0  0  0  0  0  0
    3.8208    5.3739    0.0000 C   0  0  0  0  0  0  0  0  0  0  0  0
    3.5141    6.1398    0.0000 C   0  0  0  0  0  0  0  0  0  0  0  0
    4.6374    5.2565    0.0000 C   0  0  0  0  0  0  0  0  0  0  0  0
    3.1074    3.3110    0.0000 N   0  0  0  0  0  0  0  0  0  0  0  0
    3.2248    2.4944    0.0000 C   0  0  0  0  0  0  0  0  0  0  0  0
    2.4354    3.7896    0.0000 C   0  0  0  0  0  0  0  0  0  0  0  0
    2.5138    4.6108    0.0000 O   0  0  0  0  0  0  0  0  0  0  0  0
    1.6849    3.4468    0.0000 C   0  0  0  0  0  0  0  0  0  0  0  0
    1.6065    2.6256    0.0000 N   0  0  0  0  0  0  0  0  0  0  0  0
    2.1468    2.0021    0.0000 C   0  0  0  0  0  0  0  0  0  0  0  0
    0.7825    2.6648    0.0000 C   0  0  0  0  0  0  0  0  0  0  0  0
    0.4044    3.3981    0.0000 O   0  0  0  0  0  0  0  0  0  0  0  0
    5.6764    4.1561    0.0000 C   0  0  0  0  0  0  0  0  0  0  0  0
    5.2504    4.8626    0.0000 C   0  0  0  0  0  0  0  0  0  0  0  0
    6.4560    4.4259    0.0000 C   0  0  0  0  0  0  0  0  0  0  0  0
  1  2  1  0  0  0  0
  2  3  1  0  0  0  0
  3  4  1  0  0  0  0
  3 82  1  0  0  0  0
  4  5  1  0  0  0  0
  5  6  2  0  0  0  0
  5  7  1  0  0  0  0
  7  8  1  0  0  0  0
  7 16  1  0  0  0  0
  8  9  1  0  0  0  0
  8 10  1  0  0  0  0
 10 11  1  0  0  0  0
 10 12  1  0  0  0  0
 12 13  1  0  0  0  0
 13 14  2  0  0  0  0
 14 15  1  0  0  0  0
 16 17  1  0  0  0  0
 16 18  1  0  0  0  0
 18 19  2  0  0  0  0
 18 20  1  0  0  0  0
 20 21  1  0  0  0  0
 20 25  1  0  0  0  0
 21 22  1  0  0  0  0
 22 23  1  0  0  0  0
 22 24  1  0  0  0  0
 25 26  1  0  0  0  0
 25 27  1  0  0  0  0
 27 28  2  0  0  0  0
 27 29  1  0  0  0  0
 29 30  1  0  0  0  0
 29 34  1  0  0  0  0
 30 31  1  0  0  0  0
 31 32  1  0  0  0  0
 31 33  1  0  0  0  0
 34 35  1  0  0  0  0
 34 36  1  0  0  0  0
 36 37  2  0  0  0  0
 36 38  1  0  0  0  0
 38 39  1  0  0  0  0
 38 43  1  0  0  0  0
 39 40  1  0  0  0  0
 40 41  1  0  0  0  0
 40 42  1  0  0  0  0
 43 44  1  0  0  0  0
 43 45  1  0  0  0  0
 45 46  2  0  0  0  0
 45 47  1  0  0  0  0
 47 48  1  0  0  0  0
 47 49  1  0  0  0  0
 49 50  1  0  0  0  0
 50 51  2  0  0  0  0
 50 52  1  0  0  0  0
 52 53  1  0  0  0  0
 52 54  1  0  0  0  0
 54 55  1  0  0  0  0
 55 56  2  0  0  0  0
 55 57  1  0  0  0  0
 57 58  1  0  0  0  0
 57 62  1  0  0  0  0
 58 59  1  0  0  0  0
 59 60  1  0  0  0  0
 59 61  1  0  0  0  0
 62 63  1  0  0  0  0
 62 64  1  0  0  0  0
 64 65  2  0  0  0  0
 64 66  1  0  0  0  0
 66 67  1  0  0  0  0
 66 84  1  0  0  0  0
 67 68  1  0  0  0  0
 68 69  2  0  0  0  0
 68 70  1  0  0  0  0
 70 71  1  0  0  0  0
 70 75  1  0  0  0  0
 71 72  1  0  0  0  0
 72 73  1  0  0  0  0
 72 74  1  0  0  0  0
 75 76  1  0  0  0  0
 75 77  1  0  0  0  0
 77 78  2  0  0  0  0
 77 79  1  0  0  0  0
 79 80  1  0  0  0  0
 80 81  1  0  0  0  0
 80 82  1  0  0  0  0
 82 83  2  0  0  0  0
 84 85  1  0  0  0  0
 84 86  1  0  0  0  0
M  END
$$$$

 OpenBabel12191814062D

 88 88  0  0  0  0  0  0  0  0999 V2000
   -4.2376    2.2720    0.0000 C   0  0  0  0  0  0  0  0  0  0  0  0
   -3.4135    2.2327    0.0000 C   0  0  0  0  0  0  0  0  0  0  0  0
   -2.9675    2.9268    0.0000 C   0  0  3  0  0  0  0  0  0  0  0  0
   -2.1434    2.8875    0.0000 N   0  0  0  0  0  0  0  0  0  0  0  0
   -2.1434    2.0625    0.0000 C   0  0  0  0  0  0  0  0  0  0  0  0
   -2.8579    1.6500    0.0000 O   0  0  0  0  0  0  0  0  0  0  0  0
   -1.4289    1.6500    0.0000 C   0  0  3  0  0  0  0  0  0  0  0  0
   -1.4289    0.8250    0.0000 C   0  0  3  0  0  0  0  0  0  0  0  0
   -2.1434    0.4125    0.0000 O   0  0  0  0  0  0  0  0  0  0  0  0
   -2.1434   -0.4125    0.0000 C   0  0  0  0  0  0  0  0  0  0  0  0
   -1.4289   -0.8250    0.0000 C   0  0  0  0  0  0  0  0  0  0  0  0
   -2.8579   -0.8250    0.0000 O   0  0  0  0  0  0  0  0  0  0  0  0
   -0.7145    0.4125    0.0000 C   0  0  3  0  0  0  0  0  0  0  0  0
   -0.0000    0.8250    0.0000 C   0  0  0  0  0  0  0  0  0  0  0  0
   -0.7145   -0.4125    0.0000 C   0  0  0  0  0  0  0  0  0  0  0  0
   -0.0000   -0.8250    0.0000 C   0  0  0  0  0  0  0  0  0  0  0  0
   -0.0000   -1.6500    0.0000 C   0  0  0  0  0  0  0  0  0  0  0  0
    0.7145   -2.0625    0.0000 C   0  0  0  0  0  0  0  0  0  0  0  0
   -0.7145    2.0625    0.0000 N   0  0  0  0  0  0  0  0  0  0  0  0
   -0.5200    2.8642    0.0000 C   0  0  0  0  0  0  0  0  0  0  0  0
   -0.2684    1.3685    0.0000 C   0  0  0  0  0  0  0  0  0  0  0  0
    0.3121    0.7823    0.0000 O   0  0  0  0  0  0  0  0  0  0  0  0
    0.5556    1.4077    0.0000 C   0  0  3  0  0  0  0  0  0  0  0  0
    1.0017    0.7137    0.0000 C   0  0  0  0  0  0  0  0  0  0  0  0
    1.8257    0.7529    0.0000 C   0  0  0  0  0  0  0  0  0  0  0  0
    0.6236   -0.0196    0.0000 C   0  0  0  0  0  0  0  0  0  0  0  0
    0.9337    2.1410    0.0000 N   0  0  0  0  0  0  0  0  0  0  0  0
    0.6638    2.9206    0.0000 C   0  0  0  0  0  0  0  0  0  0  0  0
    1.6841    1.7983    0.0000 C   0  0  0  0  0  0  0  0  0  0  0  0
    2.0125    1.0415    0.0000 O   0  0  0  0  0  0  0  0  0  0  0  0
    2.3561    2.2768    0.0000 C   0  0  3  0  0  0  0  0  0  0  0  0
    3.1066    1.9341    0.0000 C   0  0  0  0  0  0  0  0  0  0  0  0
    3.1850    1.1129    0.0000 C   0  0  0  0  0  0  0  0  0  0  0  0
    3.9354    0.7701    0.0000 C   0  0  0  0  0  0  0  0  0  0  0  0
    2.5130    0.6343    0.0000 C   0  0  0  0  0  0  0  0  0  0  0  0
    2.2777    3.0981    0.0000 N   0  0  0  0  0  0  0  0  0  0  0  0
    1.6292    3.6081    0.0000 C   0  0  0  0  0  0  0  0  0  0  0  0
    3.0943    3.2155    0.0000 C   0  0  0  0  0  0  0  0  0  0  0  0
    3.6043    2.5670    0.0000 O   0  0  0  0  0  0  0  0  0  0  0  0
    3.4009    3.9814    0.0000 C   0  0  3  0  0  0  0  0  0  0  0  0
    4.2175    4.0988    0.0000 C   0  0  0  0  0  0  0  0  0  0  0  0
    4.7275    3.4503    0.0000 C   0  0  0  0  0  0  0  0  0  0  0  0
    5.5441    3.5677    0.0000 C   0  0  0  0  0  0  0  0  0  0  0  0
    4.4209    2.6844    0.0000 C   0  0  0  0  0  0  0  0  0  0  0  0
    2.8910    4.6299    0.0000 N   0  0  0  0  0  0  0  0  0  0  0  0
    2.0697    4.7083    0.0000 C   0  0  0  0  0  0  0  0  0  0  0  0
    3.5144    5.1702    0.0000 C   0  0  0  0  0  0  0  0  0  0  0  0
    4.2941    4.9003    0.0000 O   0  0  0  0  0  0  0  0  0  0  0  0
    3.3583    5.9803    0.0000 C   0  0  3  0  0  0  0  0  0  0  0  0
    3.9818    6.5205    0.0000 C   0  0  0  0  0  0  0  0  0  0  0  0
    2.5787    6.2501    0.0000 N   0  0  0  0  0  0  0  0  0  0  0  0
    2.8111    7.0417    0.0000 C   0  0  0  0  0  0  0  0  0  0  0  0
    3.6129    7.2362    0.0000 O   0  0  0  0  0  0  0  0  0  0  0  0
    2.2418    7.6388    0.0000 C   0  0  3  0  0  0  0  0  0  0  0  0
    2.4742    8.4303    0.0000 C   0  0  0  0  0  0  0  0  0  0  0  0
    1.4401    7.4443    0.0000 N   0  0  0  0  0  0  0  0  0  0  0  0
    1.2076    8.2358    0.0000 C   0  0  0  0  0  0  0  0  0  0  0  0
    1.7769    8.8329    0.0000 O   0  0  0  0  0  0  0  0  0  0  0  0
    0.4059    8.4303    0.0000 C   0  0  3  0  0  0  0  0  0  0  0  0
    0.1735    9.2219    0.0000 C   0  0  0  0  0  0  0  0  0  0  0  0
    0.7428    9.8190    0.0000 C   0  0  0  0  0  0  0  0  0  0  0  0
    0.5103   10.6106    0.0000 C   0  0  0  0  0  0  0  0  0  0  0  0
    1.5445    9.6245    0.0000 C   0  0  0  0  0  0  0  0  0  0  0  0
   -0.1634    7.8333    0.0000 N   0  0  0  0  0  0  0  0  0  0  0  0
   -0.1242    7.0092    0.0000 C   0  0  0  0  0  0  0  0  0  0  0  0
   -0.7869    8.3735    0.0000 C   0  0  0  0  0  0  0  0  0  0  0  0
   -0.6308    9.1836    0.0000 O   0  0  0  0  0  0  0  0  0  0  0  0
   -1.5665    8.1037    0.0000 C   0  0  3  0  0  0  0  0  0  0  0  0
   -1.7227    7.2936    0.0000 N   0  0  0  0  0  0  0  0  0  0  0  0
   -2.5393    7.4110    0.0000 C   0  0  0  0  0  0  0  0  0  0  0  0
   -2.8459    8.1769    0.0000 O   0  0  0  0  0  0  0  0  0  0  0  0
   -3.0493    6.7625    0.0000 C   0  0  3  0  0  0  0  0  0  0  0  0
   -3.8659    6.8799    0.0000 C   0  0  0  0  0  0  0  0  0  0  0  0
   -4.1725    7.6458    0.0000 C   0  0  0  0  0  0  0  0  0  0  0  0
   -4.9891    7.7632    0.0000 C   0  0  0  0  0  0  0  0  0  0  0  0
   -3.6625    8.2943    0.0000 C   0  0  0  0  0  0  0  0  0  0  0  0
   -2.7426    5.9966    0.0000 N   0  0  0  0  0  0  0  0  0  0  0  0
   -1.9767    5.6900    0.0000 C   0  0  0  0  0  0  0  0  0  0  0  0
   -3.4931    5.6539    0.0000 C   0  0  0  0  0  0  0  0  0  0  0  0
   -4.1651    6.1324    0.0000 O   0  0  0  0  0  0  0  0  0  0  0  0
   -3.5715    4.8326    0.0000 C   0  0  0  0  0  0  0  0  0  0  0  0
   -2.8995    4.3541    0.0000 N   0  0  0  0  0  0  0  0  0  0  0  0
   -2.0894    4.5102    0.0000 C   0  0  0  0  0  0  0  0  0  0  0  0
   -3.3455    3.6600    0.0000 C   0  0  0  0  0  0  0  0  0  0  0  0
   -4.1696    3.6993    0.0000 O   0  0  0  0  0  0  0  0  0  0  0  0
   -2.1900    8.6439    0.0000 C   0  0  0  0  0  0  0  0  0  0  0  0
   -3.0149    8.6282    0.0000 C   0  0  0  0  0  0  0  0  0  0  0  0
   -2.0339    9.4540    0.0000 C   0  0  0  0  0  0  0  0  0  0  0  0
  1  2  1  0  0  0  0
  2  3  1  0  0  0  0
  3  4  1  0  0  0  0
  3 84  1  0  0  0  0
  4  5  1  0  0  0  0
  5  6  2  0  0  0  0
  5  7  1  0  0  0  0
  7  8  1  0  0  0  0
  7 19  1  0  0  0  0
  8  9  1  0  0  0  0
  8 13  1  0  0  0  0
  9 10  1  0  0  0  0
 10 11  1  0  0  0  0
 10 12  2  0  0  0  0
 13 14  1  0  0  0  0
 13 15  1  0  0  0  0
 15 16  1  0  0  0  0
 16 17  2  0  0  0  0
 17 18  1  0  0  0  0
 19 20  1  0  0  0  0
 19 21  1  0  0  0  0
 21 22  2  0  0  0  0
 21 23  1  0  0  0  0
 23 24  1  0  0  0  0
 23 27  1  0  0  0  0
 24 25  1  0  0  0  0
 24 26  1  0  0  0  0
 27 28  1  0  0  0  0
 27 29  1  0  0  0  0
 29 30  2  0  0  0  0
 29 31  1  0  0  0  0
 31 32  1  0  0  0  0
 31 36  1  0  0  0  0
 32 33  1  0  0  0  0
 33 34  1  0  0  0  0
 33 35  1  0  0  0  0
 36 37  1  0  0  0  0
 36 38  1  0  0  0  0
 38 39  2  0  0  0  0
 38 40  1  0  0  0  0
 40 41  1  0  0  0  0
 40 45  1  0  0  0  0
 41 42  1  0  0  0  0
 42 43  1  0  0  0  0
 42 44  1  0  0  0  0
 45 46  1  0  0  0  0
 45 47  1  0  0  0  0
 47 48  2  0  0  0  0
 47 49  1  0  0  0  0
 49 50  1  0  0  0  0
 49 51  1  0  0  0  0
 51 52  1  0  0  0  0
 52 53  2  0  0  0  0
 52 54  1  0  0  0  0
 54 55  1  0  0  0  0
 54 56  1  0  0  0  0
 56 57  1  0  0  0  0
 57 58  2  0  0  0  0
 57 59  1  0  0  0  0
 59 60  1  0  0  0  0
 59 64  1  0  0  0  0
 60 61  1  0  0  0  0
 61 62  1  0  0  0  0
 61 63  1  0  0  0  0
 64 65  1  0  0  0  0
 64 66  1  0  0  0  0
 66 67  2  0  0  0  0
 66 68  1  0  0  0  0
 68 69  1  0  0  0  0
 68 86  1  0  0  0  0
 69 70  1  0  0  0  0
 70 71  2  0  0  0  0
 70 72  1  0  0  0  0
 72 73  1  0  0  0  0
 72 77  1  0  0  0  0
 73 74  1  0  0  0  0
 74 75  1  0  0  0  0
 74 76  1  0  0  0  0
 77 78  1  0  0  0  0
 77 79  1  0  0  0  0
 79 80  2  0  0  0  0
 79 81  1  0  0  0  0
 81 82  1  0  0  0  0
 82 83  1  0  0  0  0
 82 84  1  0  0  0  0
 84 85  2  0  0  0  0
 86 87  1  0  0  0  0
 86 88  1  0  0  0  0
M  END
$$$$

 OpenBabel12191814062D

 63 68  0  0  0  0  0  0  0  0999 V2000
    4.1566   -3.9340    0.0000 C   0  0  0  0  0  0  0  0  0  0  0  0
    4.5080   -3.1876    0.0000 C   0  0  0  0  0  0  0  0  0  0  0  0
    5.3302   -3.1188    0.0000 C   0  0  3  0  0  0  0  0  0  0  0  0
    5.9602   -3.6515    0.0000 N   0  0  0  0  0  0  0  0  0  0  0  0
    6.7365   -3.3723    0.0000 C   0  0  0  0  0  0  0  0  0  0  0  0
    6.8828   -2.5603    0.0000 O   0  0  0  0  0  0  0  0  0  0  0  0
    7.3664   -3.9049    0.0000 C   0  0  3  0  0  0  0  0  0  0  0  0
    7.2201   -4.7169    0.0000 N   0  0  0  0  0  0  0  0  0  0  0  0
    6.4438   -4.9961    0.0000 C   0  0  0  0  0  0  0  0  0  0  0  0
    5.8138   -4.4634    0.0000 O   0  0  0  0  0  0  0  0  0  0  0  0
    6.2975   -5.8080    0.0000 C   0  0  0  0  0  0  0  0  0  0  0  0
    5.5212   -6.0873    0.0000 N   0  0  0  0  0  0  0  0  0  0  0  0
    5.3749   -6.8992    0.0000 C   0  0  0  0  0  0  0  0  0  0  0  0
    6.0048   -7.4319    0.0000 C   0  0  0  0  0  0  0  0  0  0  0  0
    6.7811   -7.1526    0.0000 C   0  0  0  0  0  0  0  0  0  0  0  0
    6.9275   -6.3407    0.0000 C   0  0  0  0  0  0  0  0  0  0  0  0
    7.7038   -6.0615    0.0000 O   0  0  0  0  0  0  0  0  0  0  0  0
    8.1427   -3.6257    0.0000 C   0  0  3  0  0  0  0  0  0  0  0  0
    8.2891   -2.8138    0.0000 C   0  0  0  0  0  0  0  0  0  0  0  0
    8.7727   -4.1584    0.0000 O   0  0  0  0  0  0  0  0  0  0  0  0
    9.6347   -3.8900    0.0000 C   0  0  0  0  0  0  0  0  0  0  0  0
    9.6701   -3.0657    0.0000 O   0  0  0  0  0  0  0  0  0  0  0  0
   10.3985   -4.2019    0.0000 C   0  0  3  0  0  0  0  0  0  0  0  0
   10.9311   -3.5719    0.0000 N   0  0  0  0  0  0  0  0  0  0  0  0
   10.4966   -2.8707    0.0000 C   0  0  0  0  0  0  0  0  0  0  0  0
    9.6761   -2.7848    0.0000 O   0  0  0  0  0  0  0  0  0  0  0  0
   10.6180   -1.9761    0.0000 C   0  0  3  0  0  0  0  0  0  0  0  0
   11.3943   -1.6968    0.0000 C   0  0  0  0  0  0  0  0  0  0  0  0
   11.5406   -0.8849    0.0000 C   0  0  0  0  0  0  0  0  0  0  0  0
   12.3169   -0.6057    0.0000 O   0  0  0  0  0  0  0  0  0  0  0  0
   10.9106   -0.3522    0.0000 C   0  0  0  0  0  0  0  0  0  0  0  0
   10.1343   -0.6315    0.0000 C   0  0  0  0  0  0  0  0  0  0  0  0
    9.9880   -1.4434    0.0000 N   0  0  0  0  0  0  0  0  0  0  0  0
    9.2117   -1.7226    0.0000 C   0  0  0  0  0  0  0  0  0  0  0  0
    9.0654   -2.5345    0.0000 O   0  0  0  0  0  0  0  0  0  0  0  0
    8.5817   -1.1899    0.0000 C   0  0  3  0  0  0  0  0  0  0  0  0
    8.7280   -0.3780    0.0000 C   0  0  0  0  0  0  0  0  0  0  0  0
    8.0981    0.1547    0.0000 C   0  0  0  0  0  0  0  0  0  0  0  0
    7.3218   -0.1246    0.0000 C   0  0  0  0  0  0  0  0  0  0  0  0
    6.6918    0.4081    0.0000 C   0  0  0  0  0  0  0  0  0  0  0  0
    6.8381    1.2200    0.0000 C   0  0  0  0  0  0  0  0  0  0  0  0
    7.6144    1.4993    0.0000 C   0  0  0  0  0  0  0  0  0  0  0  0
    8.2444    0.9666    0.0000 C   0  0  0  0  0  0  0  0  0  0  0  0
    6.2081    1.7527    0.0000 N   0  0  0  0  0  0  0  0  0  0  0  0
    5.4318    1.4735    0.0000 C   0  0  0  0  0  0  0  0  0  0  0  0
    6.3544    2.5646    0.0000 C   0  0  0  0  0  0  0  0  0  0  0  0
    7.8054   -1.4692    0.0000 N   0  0  0  0  0  0  0  0  0  0  0  0
    7.6591   -2.2811    0.0000 C   0  0  0  0  0  0  0  0  0  0  0  0
    7.1754   -0.9365    0.0000 C   0  0  0  0  0  0  0  0  0  0  0  0
    6.8166   -0.1936    0.0000 O   0  0  0  0  0  0  0  0  0  0  0  0
    6.3991   -1.2157    0.0000 C   0  0  3  0  0  0  0  0  0  0  0  0
    5.9646   -0.5145    0.0000 C   0  0  0  0  0  0  0  0  0  0  0  0
    5.1633   -0.7110    0.0000 C   0  0  0  0  0  0  0  0  0  0  0  0
    5.1027   -1.5338    0.0000 C   0  0  0  0  0  0  0  0  0  0  0  0
    5.8664   -1.8457    0.0000 N   0  0  0  0  0  0  0  0  0  0  0  0
    6.2528   -2.0277    0.0000 C   0  0  0  0  0  0  0  0  0  0  0  0
    7.0589   -1.8521    0.0000 O   0  0  0  0  0  0  0  0  0  0  0  0
   10.5950   -5.0032    0.0000 C   0  0  0  0  0  0  0  0  0  0  0  0
   11.3872   -5.2336    0.0000 C   0  0  0  0  0  0  0  0  0  0  0  0
   11.5837   -6.0348    0.0000 C   0  0  0  0  0  0  0  0  0  0  0  0
   10.9881   -6.6057    0.0000 C   0  0  0  0  0  0  0  0  0  0  0  0
   10.1960   -6.3753    0.0000 C   0  0  0  0  0  0  0  0  0  0  0  0
    9.9994   -5.5740    0.0000 C   0  0  0  0  0  0  0  0  0  0  0  0
  1  2  1  0  0  0  0
  2  3  1  0  0  0  0
  3  4  1  0  0  0  0
  3 56  1  0  0  0  0
  4  5  1  0  0  0  0
  5  6  2  0  0  0  0
  5  7  1  0  0  0  0
  7  8  1  0  0  0  0
  7 18  1  0  0  0  0
  8  9  1  0  0  0  0
  9 10  2  0  0  0  0
  9 11  1  0  0  0  0
 11 12  2  0  0  0  0
 11 16  1  0  0  0  0
 12 13  1  0  0  0  0
 13 14  2  0  0  0  0
 14 15  1  0  0  0  0
 15 16  2  0  0  0  0
 16 17  1  0  0  0  0
 18 19  1  0  0  0  0
 18 20  1  0  0  0  0
 20 21  1  0  0  0  0
 21 22  2  0  0  0  0
 21 23  1  0  0  0  0
 23 24  1  0  0  0  0
 23 58  1  0  0  0  0
 24 25  1  0  0  0  0
 25 26  2  0  0  0  0
 25 27  1  0  0  0  0
 27 28  1  0  0  0  0
 27 33  1  0  0  0  0
 28 29  1  0  0  0  0
 29 30  2  0  0  0  0
 29 31  1  0  0  0  0
 31 32  1  0  0  0  0
 32 33  1  0  0  0  0
 33 34  1  0  0  0  0
 34 35  2  0  0  0  0
 34 36  1  0  0  0  0
 36 37  1  0  0  0  0
 36 47  1  0  0  0  0
 37 38  1  0  0  0  0
 38 39  2  0  0  0  0
 38 43  1  0  0  0  0
 39 40  1  0  0  0  0
 40 41  2  0  0  0  0
 41 42  1  0  0  0  0
 41 44  1  0  0  0  0
 42 43  2  0  0  0  0
 44 45  1  0  0  0  0
 44 46  1  0  0  0  0
 47 48  1  0  0  0  0
 47 49  1  0  0  0  0
 49 50  2  0  0  0  0
 49 51  1  0  0  0  0
 51 52  1  0  0  0  0
 51 55  1  0  0  0  0
 52 53  1  0  0  0  0
 53 54  1  0  0  0  0
 54 55  1  0  0  0  0
 55 56  1  0  0  0  0
 56 57  2  0  0  0  0
 58 59  2  0  0  0  0
 58 63  1  0  0  0  0
 59 60  1  0  0  0  0
 60 61  2  0  0  0  0
 61 62  1  0  0  0  0
 62 63  2  0  0  0  0
M  END
$$$$

 OpenBabel12191814062D

 58 60  0  0  0  0  0  0  0  0999 V2000
   -1.4289   -5.7750    0.0000 C   0  0  0  0  0  0  0  0  0  0  0  0
   -0.7145   -5.3625    0.0000 C   0  0  0  0  0  0  0  0  0  0  0  0
   -0.7145   -4.5375    0.0000 C   0  0  3  0  0  0  0  0  0  0  0  0
   -1.4289   -4.9500    0.0000 O   0  0  0  0  0  0  0  0  0  0  0  0
   -2.1434   -4.5375    0.0000 C   0  0  0  0  0  0  0  0  0  0  0  0
   -2.8579   -4.9500    0.0000 O   0  0  0  0  0  0  0  0  0  0  0  0
   -2.1434   -3.7125    0.0000 C   0  0  3  0  0  0  0  0  0  0  0  0
   -2.9639   -3.7987    0.0000 C   0  0  0  0  0  0  0  0  0  0  0  0
   -1.4289   -3.3000    0.0000 C   0  0  3  0  0  0  0  0  0  0  0  0
   -2.1434   -2.8875    0.0000 O   0  0  0  0  0  0  0  0  0  0  0  0
   -2.8579   -3.3000    0.0000 C   0  0  3  0  0  0  0  0  0  0  0  0
   -3.5724   -2.8875    0.0000 C   0  0  0  0  0  0  0  0  0  0  0  0
   -4.2868   -3.3000    0.0000 C   0  0  3  0  0  0  0  0  0  0  0  0
   -4.5690   -2.5248    0.0000 C   0  0  0  0  0  0  0  0  0  0  0  0
   -5.0993   -3.4433    0.0000 O   0  0  0  0  0  0  0  0  0  0  0  0
   -5.6296   -2.8113    0.0000 C   0  0  0  0  0  0  0  0  0  0  0  0
   -4.2868   -4.1250    0.0000 C   0  0  3  0  0  0  0  0  0  0  0  0
   -5.0013   -4.5375    0.0000 O   0  0  0  0  0  0  0  0  0  0  0  0
   -3.5724   -4.5375    0.0000 C   0  0  3  0  0  0  0  0  0  0  0  0
   -3.5724   -5.3625    0.0000 C   0  0  0  0  0  0  0  0  0  0  0  0
   -2.8579   -4.1250    0.0000 O   0  0  0  0  0  0  0  0  0  0  0  0
   -1.4289   -2.4750    0.0000 C   0  0  3  0  0  0  0  0  0  0  0  0
   -2.1434   -2.0625    0.0000 C   0  0  0  0  0  0  0  0  0  0  0  0
   -0.7145   -2.0625    0.0000 C   0  0  3  0  0  0  0  0  0  0  0  0
   -0.7145   -1.2375    0.0000 O   0  0  0  0  0  0  0  0  0  0  0  0
   -1.4289   -0.8250    0.0000 C   0  0  3  0  0  0  0  0  0  0  0  0
   -2.1434   -1.2375    0.0000 O   0  0  0  0  0  0  0  0  0  0  0  0
   -2.8579   -0.8250    0.0000 C   0  0  3  0  0  0  0  0  0  0  0  0
   -3.5724   -1.2375    0.0000 C   0  0  0  0  0  0  0  0  0  0  0  0
   -2.8579    0.0000    0.0000 C   0  0  0  0  0  0  0  0  0  0  0  0
   -2.1434    0.4125    0.0000 C   0  0  3  0  0  0  0  0  0  0  0  0
   -1.4289    0.0000    0.0000 C   0  0  3  0  0  0  0  0  0  0  0  0
   -0.7145    0.4125    0.0000 O   0  0  0  0  0  0  0  0  0  0  0  0
   -2.1434    1.2375    0.0000 N   0  0  0  0  0  0  0  0  0  0  0  0
   -1.4289    1.6500    0.0000 C   0  0  0  0  0  0  0  0  0  0  0  0
   -2.8579    1.6500    0.0000 C   0  0  0  0  0  0  0  0  0  0  0  0
   -0.0000   -2.4750    0.0000 C   0  0  3  0  0  0  0  0  0  0  0  0
   -0.2822   -1.6998    0.0000 C   0  0  0  0  0  0  0  0  0  0  0  0
    0.2822   -1.6998    0.0000 O   0  0  0  0  0  0  0  0  0  0  0  0
    0.7145   -2.0625    0.0000 C   0  0  0  0  0  0  0  0  0  0  0  0
    1.4289   -2.4750    0.0000 C   0  0  3  0  0  0  0  0  0  0  0  0
    2.1434   -2.0625    0.0000 C   0  0  0  0  0  0  0  0  0  0  0  0
    1.4289   -3.3000    0.0000 C   0  0  0  0  0  0  0  0  0  0  0  0
    2.1434   -3.7125    0.0000 N   0  0  0  0  0  0  0  0  0  0  0  0
    2.8579   -3.3000    0.0000 O   0  0  0  0  0  0  0  0  0  0  0  0
    3.5724   -3.7125    0.0000 C   0  0  0  0  0  0  0  0  0  0  0  0
    4.2868   -3.3000    0.0000 O   0  0  0  0  0  0  0  0  0  0  0  0
    5.0013   -3.7125    0.0000 C   0  0  0  0  0  0  0  0  0  0  0  0
    5.7158   -3.3000    0.0000 C   0  0  0  0  0  0  0  0  0  0  0  0
    6.4302   -3.7125    0.0000 O   0  0  0  0  0  0  0  0  0  0  0  0
    7.1447   -3.3000    0.0000 C   0  0  0  0  0  0  0  0  0  0  0  0
    0.7145   -3.7125    0.0000 C   0  0  3  0  0  0  0  0  0  0  0  0
   -0.0000   -3.3000    0.0000 C   0  0  0  0  0  0  0  0  0  0  0  0
    0.7145   -4.5375    0.0000 C   0  0  3  0  0  0  0  0  0  0  0  0
    1.4289   -4.9500    0.0000 O   0  0  0  0  0  0  0  0  0  0  0  0
   -0.0000   -4.9500    0.0000 C   0  0  3  0  0  0  0  0  0  0  0  0
    0.3873   -5.6784    0.0000 C   0  0  0  0  0  0  0  0  0  0  0  0
   -0.3873   -5.6784    0.0000 O   0  0  0  0  0  0  0  0  0  0  0  0
  1  2  1  0  0  0  0
  2  3  1  0  0  0  0
  3  4  1  0  0  0  0
  3 56  1  0  0  0  0
  4  5  1  0  0  0  0
  5  6  2  0  0  0  0
  5  7  1  0  0  0  0
  7  8  1  0  0  0  0
  7  9  1  0  0  0  0
  9 10  1  0  0  0  0
  9 22  1  0  0  0  0
 10 11  1  0  0  0  0
 11 12  1  0  0  0  0
 11 21  1  0  0  0  0
 12 13  1  0  0  0  0
 13 14  1  0  0  0  0
 13 15  1  0  0  0  0
 13 17  1  0  0  0  0
 15 16  1  0  0  0  0
 17 18  1  0  0  0  0
 17 19  1  0  0  0  0
 19 20  1  0  0  0  0
 19 21  1  0  0  0  0
 22 23  1  0  0  0  0
 22 24  1  0  0  0  0
 24 25  1  0  0  0  0
 24 37  1  0  0  0  0
 25 26  1  0  0  0  0
 26 27  1  0  0  0  0
 26 32  1  0  0  0  0
 27 28  1  0  0  0  0
 28 29  1  0  0  0  0
 28 30  1  0  0  0  0
 30 31  1  0  0  0  0
 31 32  1  0  0  0  0
 31 34  1  0  0  0  0
 32 33  1  0  0  0  0
 34 35  1  0  0  0  0
 34 36  1  0  0  0  0
 37 38  1  0  0  0  0
 37 39  1  0  0  0  0
 37 40  1  0  0  0  0
 40 41  1  0  0  0  0
 41 42  1  0  0  0  0
 41 43  1  0  0  0  0
 43 44  2  0  0  0  0
 43 52  1  0  0  0  0
 44 45  1  0  0  0  0
 45 46  1  0  0  0  0
 46 47  1  0  0  0  0
 47 48  1  0  0  0  0
 48 49  1  0  0  0  0
 49 50  1  0  0  0  0
 50 51  1  0  0  0  0
 52 53  1  0  0  0  0
 52 54  1  0  0  0  0
 54 55  1  0  0  0  0
 54 56  1  0  0  0  0
 56 57  1  0  0  0  0
 56 58  1  0  0  0  0
M  END
$$$$

 OpenBabel12191814062D

 51 53  0  0  0  0  0  0  0  0999 V2000
   -2.1434    4.5375    0.0000 C   0  0  0  0  0  0  0  0  0  0  0  0
   -2.8579    4.1250    0.0000 C   0  0  0  0  0  0  0  0  0  0  0  0
   -2.8579    3.3000    0.0000 C   0  0  3  0  0  0  0  0  0  0  0  0
   -2.1434    3.7125    0.0000 O   0  0  0  0  0  0  0  0  0  0  0  0
   -1.4289    3.3000    0.0000 C   0  0  0  0  0  0  0  0  0  0  0  0
   -0.7145    3.7125    0.0000 O   0  0  0  0  0  0  0  0  0  0  0  0
   -1.4289    2.4750    0.0000 C   0  0  3  0  0  0  0  0  0  0  0  0
   -0.6085    2.5612    0.0000 C   0  0  0  0  0  0  0  0  0  0  0  0
   -2.1434    2.0625    0.0000 C   0  0  3  0  0  0  0  0  0  0  0  0
   -1.4289    1.6500    0.0000 O   0  0  0  0  0  0  0  0  0  0  0  0
   -0.7145    2.0625    0.0000 C   0  0  3  0  0  0  0  0  0  0  0  0
   -0.7145    2.8875    0.0000 C   0  0  0  0  0  0  0  0  0  0  0  0
   -0.0000    3.3000    0.0000 C   0  0  3  0  0  0  0  0  0  0  0  0
   -0.5303    3.9320    0.0000 C   0  0  0  0  0  0  0  0  0  0  0  0
    0.5303    3.9320    0.0000 O   0  0  0  0  0  0  0  0  0  0  0  0
    0.2481    4.7072    0.0000 C   0  0  0  0  0  0  0  0  0  0  0  0
    0.7145    2.8875    0.0000 C   0  0  3  0  0  0  0  0  0  0  0  0
    1.4289    3.3000    0.0000 O   0  0  0  0  0  0  0  0  0  0  0  0
    0.7145    2.0625    0.0000 C   0  0  3  0  0  0  0  0  0  0  0  0
    1.4289    1.6500    0.0000 C   0  0  0  0  0  0  0  0  0  0  0  0
   -0.0000    1.6500    0.0000 O   0  0  0  0  0  0  0  0  0  0  0  0
   -2.1434    1.2375    0.0000 C   0  0  3  0  0  0  0  0  0  0  0  0
   -1.4289    0.8250    0.0000 C   0  0  0  0  0  0  0  0  0  0  0  0
   -2.8579    0.8250    0.0000 C   0  0  3  0  0  0  0  0  0  0  0  0
   -2.8579    0.0000    0.0000 O   0  0  0  0  0  0  0  0  0  0  0  0
   -2.1434   -0.4125    0.0000 C   0  0  3  0  0  0  0  0  0  0  0  0
   -1.4289    0.0000    0.0000 O   0  0  0  0  0  0  0  0  0  0  0  0
   -0.7145   -0.4125    0.0000 C   0  0  3  0  0  0  0  0  0  0  0  0
   -0.0000    0.0000    0.0000 C   0  0  0  0  0  0  0  0  0  0  0  0
   -0.7145   -1.2375    0.0000 C   0  0  0  0  0  0  0  0  0  0  0  0
   -1.4289   -1.6500    0.0000 C   0  0  3  0  0  0  0  0  0  0  0  0
   -2.1434   -1.2375    0.0000 C   0  0  3  0  0  0  0  0  0  0  0  0
   -2.8579   -1.6500    0.0000 O   0  0  0  0  0  0  0  0  0  0  0  0
   -1.4289   -2.4750    0.0000 N   0  0  0  0  0  0  0  0  0  0  0  0
   -0.7145   -2.8875    0.0000 C   0  0  0  0  0  0  0  0  0  0  0  0
   -2.1434   -2.8875    0.0000 C   0  0  0  0  0  0  0  0  0  0  0  0
   -3.5724    1.2375    0.0000 C   0  0  3  0  0  0  0  0  0  0  0  0
   -3.2902    0.4623    0.0000 C   0  0  0  0  0  0  0  0  0  0  0  0
   -3.8545    0.4623    0.0000 O   0  0  0  0  0  0  0  0  0  0  0  0
   -4.2868    0.8250    0.0000 C   0  0  0  0  0  0  0  0  0  0  0  0
   -5.0013    1.2375    0.0000 C   0  0  3  0  0  0  0  0  0  0  0  0
   -5.7158    0.8250    0.0000 C   0  0  0  0  0  0  0  0  0  0  0  0
   -5.0013    2.0625    0.0000 C   0  0  0  0  0  0  0  0  0  0  0  0
   -5.7158    2.4750    0.0000 O   0  0  0  0  0  0  0  0  0  0  0  0
   -4.2868    2.4750    0.0000 C   0  0  3  0  0  0  0  0  0  0  0  0
   -3.5724    2.0625    0.0000 C   0  0  0  0  0  0  0  0  0  0  0  0
   -4.2868    3.3000    0.0000 C   0  0  3  0  0  0  0  0  0  0  0  0
   -5.0013    3.7125    0.0000 O   0  0  0  0  0  0  0  0  0  0  0  0
   -3.5724    3.7125    0.0000 C   0  0  3  0  0  0  0  0  0  0  0  0
   -3.9597    4.4409    0.0000 C   0  0  0  0  0  0  0  0  0  0  0  0
   -3.1850    4.4409    0.0000 O   0  0  0  0  0  0  0  0  0  0  0  0
  1  2  1  0  0  0  0
  2  3  1  0  0  0  0
  3  4  1  0  0  0  0
  3 49  1  0  0  0  0
  4  5  1  0  0  0  0
  5  6  2  0  0  0  0
  5  7  1  0  0  0  0
  7  8  1  0  0  0  0
  7  9  1  0  0  0  0
  9 10  1  0  0  0  0
  9 22  1  0  0  0  0
 10 11  1  0  0  0  0
 11 12  1  0  0  0  0
 11 21  1  0  0  0  0
 12 13  1  0  0  0  0
 13 14  1  0  0  0  0
 13 15  1  0  0  0  0
 13 17  1  0  0  0  0
 15 16  1  0  0  0  0
 17 18  1  0  0  0  0
 17 19  1  0  0  0  0
 19 20  1  0  0  0  0
 19 21  1  0  0  0  0
 22 23  1  0  0  0  0
 22 24  1  0  0  0  0
 24 25  1  0  0  0  0
 24 37  1  0  0  0  0
 25 26  1  0  0  0  0
 26 27  1  0  0  0  0
 26 32  1  0  0  0  0
 27 28  1  0  0  0  0
 28 29  1  0  0  0  0
 28 30  1  0  0  0  0
 30 31  1  0  0  0  0
 31 32  1  0  0  0  0
 31 34  1  0  0  0  0
 32 33  1  0  0  0  0
 34 35  1  0  0  0  0
 34 36  1  0  0  0  0
 37 38  1  0  0  0  0
 37 39  1  0  0  0  0
 37 40  1  0  0  0  0
 40 41  1  0  0  0  0
 41 42  1  0  0  0  0
 41 43  1  0  0  0  0
 43 44  2  0  0  0  0
 43 45  1  0  0  0  0
 45 46  1  0  0  0  0
 45 47  1  0  0  0  0
 47 48  1  0  0  0  0
 47 49  1  0  0  0  0
 49 50  1  0  0  0  0
 49 51  1  0  0  0  0
M  END
$$$$

 OpenBabel12191814062D

 29 32  0  0  0  0  0  0  0  0999 V2000
   -1.4289   -2.4750    0.0000 C   0  0  0  0  0  0  0  0  0  0  0  0
   -0.7145   -2.8875    0.0000 C   0  0  0  0  0  0  0  0  0  0  0  0
    0.0000   -2.4750    0.0000 C   0  0  0  0  0  0  0  0  0  0  0  0
    0.7145   -2.8875    0.0000 C   0  0  0  0  0  0  0  0  0  0  0  0
    0.7145   -3.7125    0.0000 O   0  0  0  0  0  0  0  0  0  0  0  0
    1.4289   -2.4750    0.0000 C   0  0  0  0  0  0  0  0  0  0  0  0
    1.4289   -1.6500    0.0000 C   0  0  0  0  0  0  0  0  0  0  0  0
    2.1434   -1.2375    0.0000 C   0  0  0  0  0  0  0  0  0  0  0  0
    2.8579   -1.6500    0.0000 C   0  0  0  0  0  0  0  0  0  0  0  0
    3.5724   -1.2375    0.0000 S   0  0  0  0  0  0  0  0  0  0  0  0
    4.2868   -1.6500    0.0000 C   0  0  0  0  0  0  0  0  0  0  0  0
    5.0013   -1.2375    0.0000 C   0  0  0  0  0  0  0  0  0  0  0  0
    5.7158   -1.6500    0.0000 C   0  0  0  0  0  0  0  0  0  0  0  0
    5.7158   -2.4750    0.0000 C   0  0  0  0  0  0  0  0  0  0  0  0
    5.0013   -2.8875    0.0000 C   0  0  0  0  0  0  0  0  0  0  0  0
    4.2868   -2.4750    0.0000 C   0  0  0  0  0  0  0  0  0  0  0  0
    3.5724   -2.8875    0.0000 N   0  0  0  0  0  0  0  0  0  0  0  0
    3.5724   -3.7125    0.0000 C   0  0  0  0  0  0  0  0  0  0  0  0
    2.8579   -4.1250    0.0000 C   0  0  0  0  0  0  0  0  0  0  0  0
    2.8579   -4.9500    0.0000 C   0  0  0  0  0  0  0  0  0  0  0  0
    3.5724   -5.3625    0.0000 N   0  0  0  0  0  0  0  0  0  0  0  0
    4.2868   -4.9500    0.0000 C   0  0  0  0  0  0  0  0  0  0  0  0
    5.0013   -5.3625    0.0000 C   0  0  0  0  0  0  0  0  0  0  0  0
    5.0013   -6.1875    0.0000 N   0  0  0  0  0  0  0  0  0  0  0  0
    5.7158   -6.6000    0.0000 C   0  0  0  0  0  0  0  0  0  0  0  0
    4.2868   -6.6000    0.0000 C   0  0  0  0  0  0  0  0  0  0  0  0
    3.5724   -6.1875    0.0000 C   0  0  0  0  0  0  0  0  0  0  0  0
    2.8579   -2.4750    0.0000 C   0  0  0  0  0  0  0  0  0  0  0  0
    2.1434   -2.8875    0.0000 C   0  0  0  0  0  0  0  0  0  0  0  0
  1  2  1  0  0  0  0
  2  3  1  0  0  0  0
  3  4  1  0  0  0  0
  4  5  2  0  0  0  0
  4  6  1  0  0  0  0
  6  7  2  0  0  0  0
  6 29  1  0  0  0  0
  7  8  1  0  0  0  0
  8  9  2  0  0  0  0
  9 10  1  0  0  0  0
  9 28  1  0  0  0  0
 10 11  1  0  0  0  0
 11 12  2  0  0  0  0
 11 16  1  0  0  0  0
 12 13  1  0  0  0  0
 13 14  2  0  0  0  0
 14 15  1  0  0  0  0
 15 16  2  0  0  0  0
 16 17  1  0  0  0  0
 17 18  1  0  0  0  0
 17 28  1  0  0  0  0
 18 19  1  0  0  0  0
 19 20  1  0  0  0  0
 20 21  1  0  0  0  0
 21 22  1  0  0  0  0
 21 27  1  0  0  0  0
 22 23  1  0  0  0  0
 23 24  1  0  0  0  0
 24 25  1  0  0  0  0
 24 26  1  0  0  0  0
 26 27  1  0  0  0  0
 28 29  2  0  0  0  0
M  END
$$$$

 OpenBabel12191814062D

 36 39  0  0  0  0  0  0  0  0999 V2000
    0.4626    2.4089    0.0000 C   0  0  0  0  0  0  0  0  0  0  0  0
    0.7022    1.6194    0.0000 C   0  0  0  0  0  0  0  0  0  0  0  0
    1.5057    1.4323    0.0000 C   0  0  0  0  0  0  0  0  0  0  0  0
    1.7453    0.6428    0.0000 C   0  0  0  0  0  0  0  0  0  0  0  0
    1.1814    0.0406    0.0000 O   0  0  0  0  0  0  0  0  0  0  0  0
    2.5488    0.4556    0.0000 O   0  0  0  0  0  0  0  0  0  0  0  0
    2.7884   -0.3338    0.0000 C   0  0  3  0  0  0  0  0  0  0  0  0
    3.5919   -0.5210    0.0000 C   0  0  3  0  0  0  0  0  0  0  0  0
    4.1557    0.0812    0.0000 C   0  0  0  0  0  0  0  0  0  0  0  0
    3.8315   -1.3104    0.0000 C   0  0  3  0  0  0  0  0  0  0  0  0
    4.3488   -0.6677    0.0000 O   0  0  0  0  0  0  0  0  0  0  0  0
    4.6539   -1.3758    0.0000 C   0  0  3  0  0  0  0  0  0  0  0  0
    5.1615   -0.7254    0.0000 C   0  0  0  0  0  0  0  0  0  0  0  0
    5.9369   -1.0072    0.0000 C   0  0  0  0  0  0  0  0  0  0  0  0
    6.6206   -0.5456    0.0000 C   0  0  0  0  0  0  0  0  0  0  0  0
    5.9085   -1.8317    0.0000 C   0  0  0  0  0  0  0  0  0  0  0  0
    6.5589   -2.3393    0.0000 O   0  0  0  0  0  0  0  0  0  0  0  0
    5.1156   -2.0595    0.0000 C   0  0  3  0  0  0  0  0  0  0  0  0
    5.6919   -2.6498    0.0000 O   0  0  0  0  0  0  0  0  0  0  0  0
    4.8689   -2.8468    0.0000 C   0  0  0  0  0  0  0  0  0  0  0  0
    4.0995   -3.1447    0.0000 C   0  0  0  0  0  0  0  0  0  0  0  0
    4.0342   -3.9671    0.0000 C   0  0  0  0  0  0  0  0  0  0  0  0
    4.7137   -4.4349    0.0000 O   0  0  0  0  0  0  0  0  0  0  0  0
    3.3869   -2.7290    0.0000 C   0  0  0  0  0  0  0  0  0  0  0  0
    3.2676   -1.9127    0.0000 C   0  0  3  0  0  0  0  0  0  0  0  0
    2.4642   -1.7255    0.0000 C   0  0  3  0  0  0  0  0  0  0  0  0
    1.6607   -1.5383    0.0000 C   0  0  0  0  0  0  0  0  0  0  0  0
    1.3368   -2.2971    0.0000 C   0  0  0  0  0  0  0  0  0  0  0  0
    0.9697   -1.0876    0.0000 C   0  0  0  0  0  0  0  0  0  0  0  0
    2.2245   -0.9360    0.0000 C   0  0  3  0  0  0  0  0  0  0  0  0
    1.6223   -0.3722    0.0000 O   0  0  0  0  0  0  0  0  0  0  0  0
    0.8329   -0.6118    0.0000 C   0  0  0  0  0  0  0  0  0  0  0  0
    0.6457   -1.4153    0.0000 O   0  0  0  0  0  0  0  0  0  0  0  0
    0.2306   -0.0480    0.0000 C   0  0  0  0  0  0  0  0  0  0  0  0
   -0.5588   -0.2876    0.0000 C   0  0  0  0  0  0  0  0  0  0  0  0
   -1.1610    0.2763    0.0000 C   0  0  0  0  0  0  0  0  0  0  0  0
  1  2  1  0  0  0  0
  2  3  1  0  0  0  0
  3  4  1  0  0  0  0
  4  5  2  0  0  0  0
  4  6  1  0  0  0  0
  6  7  1  0  0  0  0
  7  8  1  0  0  0  0
  7 30  1  0  0  0  0
  8  9  1  0  0  0  0
  8 10  1  0  0  0  0
 10 11  1  0  0  0  0
 10 12  1  0  0  0  0
 10 25  1  0  0  0  0
 12 13  1  0  0  0  0
 12 18  1  0  0  0  0
 13 14  2  0  0  0  0
 14 15  1  0  0  0  0
 14 16  1  0  0  0  0
 16 17  2  0  0  0  0
 16 18  1  0  0  0  0
 18 19  1  0  0  0  0
 18 20  1  0  0  0  0
 20 21  1  0  0  0  0
 21 22  1  0  0  0  0
 21 24  2  0  0  0  0
 22 23  1  0  0  0  0
 24 25  1  0  0  0  0
 25 26  1  0  0  0  0
 26 27  1  0  0  0  0
 26 30  1  0  0  0  0
 27 28  1  0  0  0  0
 27 29  1  0  0  0  0
 27 30  1  0  0  0  0
 30 31  1  0  0  0  0
 31 32  1  0  0  0  0
 32 33  2  0  0  0  0
 32 34  1  0  0  0  0
 34 35  1  0  0  0  0
 35 36  1  0  0  0  0
M  END
$$$$

 OpenBabel12191814062D

 24 25  0  0  0  0  0  0  0  0999 V2000
   -1.3480   -0.5230    0.0000 C   0  0  0  0  0  0  0  0  0  0  0  0
   -0.5230   -0.5230    0.0000 C   0  0  0  0  0  0  0  0  0  0  0  0
   -0.1105   -1.2375    0.0000 C   0  0  0  0  0  0  0  0  0  0  0  0
    0.7145   -1.2375    0.0000 C   0  0  0  0  0  0  0  0  0  0  0  0
    1.5395   -1.2375    0.0000 C   0  0  0  0  0  0  0  0  0  0  0  0
    1.9520   -1.9520    0.0000 O   0  0  0  0  0  0  0  0  0  0  0  0
    1.9520   -0.5230    0.0000 N   0  0  0  0  0  0  0  0  0  0  0  0
    2.7770   -0.5230    0.0000 C   0  0  0  0  0  0  0  0  0  0  0  0
    3.1895    0.1914    0.0000 C   0  0  0  0  0  0  0  0  0  0  0  0
    4.0145    0.1914    0.0000 N   0  0  0  0  0  0  0  0  0  0  0  0
    4.4270    0.9059    0.0000 C   0  0  0  0  0  0  0  0  0  0  0  0
    4.4270   -0.5230    0.0000 C   0  0  0  0  0  0  0  0  0  0  0  0
    0.7145   -2.0625    0.0000 C   0  0  0  0  0  0  0  0  0  0  0  0
    1.4289   -2.4750    0.0000 C   0  0  0  0  0  0  0  0  0  0  0  0
    1.4289   -3.3000    0.0000 C   0  0  0  0  0  0  0  0  0  0  0  0
    0.7145   -3.7125    0.0000 C   0  0  0  0  0  0  0  0  0  0  0  0
    0.0000   -3.3000    0.0000 C   0  0  0  0  0  0  0  0  0  0  0  0
    0.0000   -2.4750    0.0000 C   0  0  0  0  0  0  0  0  0  0  0  0
    0.7145   -0.4125    0.0000 C   0  0  0  0  0  0  0  0  0  0  0  0
    0.0000    0.0000    0.0000 C   0  0  0  0  0  0  0  0  0  0  0  0
    0.0000    0.8250    0.0000 C   0  0  0  0  0  0  0  0  0  0  0  0
    0.7145    1.2375    0.0000 C   0  0  0  0  0  0  0  0  0  0  0  0
    1.4289    0.8250    0.0000 C   0  0  0  0  0  0  0  0  0  0  0  0
    1.4289   -0.0000    0.0000 C   0  0  0  0  0  0  0  0  0  0  0  0
  1  2  1  0  0  0  0
  2  3  1  0  0  0  0
  3  4  1  0  0  0  0
  4  5  1  0  0  0  0
  4 13  1  0  0  0  0
  4 19  1  0  0  0  0
  5  6  2  0  0  0  0
  5  7  1  0  0  0  0
  7  8  1  0  0  0  0
  8  9  1  0  0  0  0
  9 10  1  0  0  0  0
 10 11  1  0  0  0  0
 10 12  1  0  0  0  0
 13 14  2  0  0  0  0
 13 18  1  0  0  0  0
 14 15  1  0  0  0  0
 15 16  2  0  0  0  0
 16 17  1  0  0  0  0
 17 18  2  0  0  0  0
 19 20  2  0  0  0  0
 19 24  1  0  0  0  0
 20 21  1  0  0  0  0
 21 22  2  0  0  0  0
 22 23  1  0  0  0  0
 23 24  2  0  0  0  0
M  END
$$$$

 OpenBabel12191814062D

 26 27  0  0  0  0  0  0  0  0999 V2000
   -0.3829   -2.6961    0.0000 C   0  0  0  0  0  0  0  0  0  0  0  0
    0.3316   -2.2836    0.0000 C   0  0  0  0  0  0  0  0  0  0  0  0
    1.0461   -2.6961    0.0000 C   0  0  0  0  0  0  0  0  0  0  0  0
    1.7605   -2.2836    0.0000 C   0  0  0  0  0  0  0  0  0  0  0  0
    2.4750   -1.8711    0.0000 C   0  0  0  0  0  0  0  0  0  0  0  0
    3.1895   -2.2836    0.0000 O   0  0  0  0  0  0  0  0  0  0  0  0
    2.4750   -1.0461    0.0000 O   0  0  0  0  0  0  0  0  0  0  0  0
    3.1895   -0.6336    0.0000 C   0  0  0  0  0  0  0  0  0  0  0  0
    3.1895    0.1914    0.0000 C   0  0  0  0  0  0  0  0  0  0  0  0
    3.9039    0.6039    0.0000 N   0  0  0  0  0  0  0  0  0  0  0  0
    3.9039    1.4289    0.0000 C   0  0  0  0  0  0  0  0  0  0  0  0
    4.6184    1.8414    0.0000 C   0  0  0  0  0  0  0  0  0  0  0  0
    4.6184    0.1914    0.0000 C   0  0  0  0  0  0  0  0  0  0  0  0
    4.6184   -0.6336    0.0000 C   0  0  0  0  0  0  0  0  0  0  0  0
    2.1730   -2.9980    0.0000 C   0  0  0  0  0  0  0  0  0  0  0  0
    2.9980   -2.9980    0.0000 C   0  0  0  0  0  0  0  0  0  0  0  0
    3.4105   -3.7125    0.0000 C   0  0  0  0  0  0  0  0  0  0  0  0
    2.9980   -4.4270    0.0000 C   0  0  0  0  0  0  0  0  0  0  0  0
    2.1730   -4.4270    0.0000 C   0  0  0  0  0  0  0  0  0  0  0  0
    1.7605   -3.7125    0.0000 C   0  0  0  0  0  0  0  0  0  0  0  0
    1.3480   -1.5691    0.0000 C   0  0  0  0  0  0  0  0  0  0  0  0
    0.5230   -1.5691    0.0000 C   0  0  0  0  0  0  0  0  0  0  0  0
    0.1105   -0.8546    0.0000 C   0  0  0  0  0  0  0  0  0  0  0  0
    0.5230   -0.1401    0.0000 C   0  0  0  0  0  0  0  0  0  0  0  0
    1.3480   -0.1401    0.0000 C   0  0  0  0  0  0  0  0  0  0  0  0
    1.7605   -0.8546    0.0000 C   0  0  0  0  0  0  0  0  0  0  0  0
  1  2  1  0  0  0  0
  2  3  1  0  0  0  0
  3  4  1  0  0  0  0
  4  5  1  0  0  0  0
  4 15  1  0  0  0  0
  4 21  1  0  0  0  0
  5  6  2  0  0  0  0
  5  7  1  0  0  0  0
  7  8  1  0  0  0  0
  8  9  1  0  0  0  0
  9 10  1  0  0  0  0
 10 11  1  0  0  0  0
 10 13  1  0  0  0  0
 11 12  1  0  0  0  0
 13 14  1  0  0  0  0
 15 16  2  0  0  0  0
 15 20  1  0  0  0  0
 16 17  1  0  0  0  0
 17 18  2  0  0  0  0
 18 19  1  0  0  0  0
 19 20  2  0  0  0  0
 21 22  2  0  0  0  0
 21 26  1  0  0  0  0
 22 23  1  0  0  0  0
 23 24  2  0  0  0  0
 24 25  1  0  0  0  0
 25 26  2  0  0  0  0
M  END
$$$$

 OpenBabel12191814062D

 44 46  0  0  0  0  0  0  0  0999 V2000
   -1.1862   -6.0770    0.0000 C   0  0  0  0  0  0  0  0  0  0  0  0
   -0.7737   -5.3625    0.0000 C   0  0  0  0  0  0  0  0  0  0  0  0
   -1.1862   -4.6480    0.0000 C   0  0  0  0  0  0  0  0  0  0  0  0
   -0.7737   -3.9336    0.0000 C   0  0  3  0  0  0  0  0  0  0  0  0
    0.0513   -3.9336    0.0000 C   0  0  0  0  0  0  0  0  0  0  0  0
    0.4638   -3.2191    0.0000 O   0  0  0  0  0  0  0  0  0  0  0  0
    0.4638   -4.6480    0.0000 O   0  0  0  0  0  0  0  0  0  0  0  0
    1.2888   -4.6480    0.0000 C   0  0  0  0  0  0  0  0  0  0  0  0
    1.7013   -5.3625    0.0000 C   0  0  0  0  0  0  0  0  0  0  0  0
    2.5263   -5.3625    0.0000 N   0  0  0  0  0  0  0  0  0  0  0  0
    2.9388   -4.6480    0.0000 C   0  0  0  0  0  0  0  0  0  0  0  0
    3.7638   -4.6480    0.0000 C   0  0  0  0  0  0  0  0  0  0  0  0
    4.1763   -5.3625    0.0000 N   0  0  0  0  0  0  0  0  0  0  0  0
    5.0013   -5.3625    0.0000 C   0  0  0  0  0  0  0  0  0  0  0  0
    5.4138   -6.0770    0.0000 C   0  0  0  0  0  0  0  0  0  0  0  0
    6.2388   -6.0770    0.0000 O   0  0  0  0  0  0  0  0  0  0  0  0
    6.6513   -6.7914    0.0000 C   0  0  0  0  0  0  0  0  0  0  0  0
    6.2388   -7.5059    0.0000 O   0  0  0  0  0  0  0  0  0  0  0  0
    7.4763   -6.7914    0.0000 C   0  0  3  0  0  0  0  0  0  0  0  0
    7.8888   -6.0770    0.0000 C   0  0  0  0  0  0  0  0  0  0  0  0
    7.4763   -5.3625    0.0000 C   0  0  0  0  0  0  0  0  0  0  0  0
    7.8888   -4.6480    0.0000 C   0  0  0  0  0  0  0  0  0  0  0  0
    7.8888   -7.5059    0.0000 C   0  0  0  0  0  0  0  0  0  0  0  0
    8.7138   -7.5059    0.0000 C   0  0  0  0  0  0  0  0  0  0  0  0
    9.1263   -8.2204    0.0000 C   0  0  0  0  0  0  0  0  0  0  0  0
    8.7138   -8.9349    0.0000 C   0  0  0  0  0  0  0  0  0  0  0  0
    9.1263   -9.6493    0.0000 O   0  0  0  0  0  0  0  0  0  0  0  0
    8.7138  -10.3638    0.0000 C   0  0  0  0  0  0  0  0  0  0  0  0
    7.8888   -8.9349    0.0000 C   0  0  0  0  0  0  0  0  0  0  0  0
    7.4763   -9.6493    0.0000 O   0  0  0  0  0  0  0  0  0  0  0  0
    6.6513   -9.6493    0.0000 C   0  0  0  0  0  0  0  0  0  0  0  0
    7.4763   -8.2204    0.0000 C   0  0  0  0  0  0  0  0  0  0  0  0
    3.7638   -6.0770    0.0000 C   0  0  0  0  0  0  0  0  0  0  0  0
    2.9388   -6.0770    0.0000 C   0  0  0  0  0  0  0  0  0  0  0  0
   -1.1862   -3.2191    0.0000 C   0  0  0  0  0  0  0  0  0  0  0  0
   -2.0112   -3.2191    0.0000 C   0  0  0  0  0  0  0  0  0  0  0  0
   -2.4237   -2.5046    0.0000 C   0  0  0  0  0  0  0  0  0  0  0  0
   -2.0112   -1.7901    0.0000 C   0  0  0  0  0  0  0  0  0  0  0  0
   -2.4237   -1.0757    0.0000 O   0  0  0  0  0  0  0  0  0  0  0  0
   -3.2487   -1.0757    0.0000 C   0  0  0  0  0  0  0  0  0  0  0  0
   -1.1862   -1.7901    0.0000 C   0  0  0  0  0  0  0  0  0  0  0  0
   -0.7737   -1.0757    0.0000 O   0  0  0  0  0  0  0  0  0  0  0  0
    0.0513   -1.0757    0.0000 C   0  0  0  0  0  0  0  0  0  0  0  0
   -0.7737   -2.5046    0.0000 C   0  0  0  0  0  0  0  0  0  0  0  0
  1  2  1  0  0  0  0
  2  3  1  0  0  0  0
  3  4  1  0  0  0  0
  4  5  1  0  0  0  0
  4 35  1  0  0  0  0
  5  6  2  0  0  0  0
  5  7  1  0  0  0  0
  7  8  1  0  0  0  0
  8  9  1  0  0  0  0
  9 10  1  0  0  0  0
 10 11  1  0  0  0  0
 10 34  1  0  0  0  0
 11 12  1  0  0  0  0
 12 13  1  0  0  0  0
 13 14  1  0  0  0  0
 13 33  1  0  0  0  0
 14 15  1  0  0  0  0
 15 16  1  0  0  0  0
 16 17  1  0  0  0  0
 17 18  2  0  0  0  0
 17 19  1  0  0  0  0
 19 20  1  0  0  0  0
 19 23  1  0  0  0  0
 20 21  1  0  0  0  0
 21 22  1  0  0  0  0
 23 24  2  0  0  0  0
 23 32  1  0  0  0  0
 24 25  1  0  0  0  0
 25 26  2  0  0  0  0
 26 27  1  0  0  0  0
 26 29  1  0  0  0  0
 27 28  1  0  0  0  0
 29 30  1  0  0  0  0
 29 32  2  0  0  0  0
 30 31  1  0  0  0  0
 33 34  1  0  0  0  0
 35 36  2  0  0  0  0
 35 44  1  0  0  0  0
 36 37  1  0  0  0  0
 37 38  2  0  0  0  0
 38 39  1  0  0  0  0
 38 41  1  0  0  0  0
 39 40  1  0  0  0  0
 41 42  1  0  0  0  0
 41 44  2  0  0  0  0
 42 43  1  0  0  0  0
M  END
$$$$

 OpenBabel12191814062D

 36 38  0  0  0  0  0  0  0  0999 V2000
   -1.1862   -6.0770    0.0000 C   0  0  0  0  0  0  0  0  0  0  0  0
   -0.7737   -5.3625    0.0000 C   0  0  0  0  0  0  0  0  0  0  0  0
   -1.1862   -4.6480    0.0000 C   0  0  0  0  0  0  0  0  0  0  0  0
   -0.7737   -3.9336    0.0000 C   0  0  3  0  0  0  0  0  0  0  0  0
    0.0513   -3.9336    0.0000 C   0  0  0  0  0  0  0  0  0  0  0  0
    0.4638   -3.2191    0.0000 O   0  0  0  0  0  0  0  0  0  0  0  0
    0.4638   -4.6480    0.0000 O   0  0  0  0  0  0  0  0  0  0  0  0
    1.2888   -4.6480    0.0000 C   0  0  0  0  0  0  0  0  0  0  0  0
    1.7013   -5.3625    0.0000 C   0  0  0  0  0  0  0  0  0  0  0  0
    2.5263   -5.3625    0.0000 N   0  0  0  0  0  0  0  0  0  0  0  0
    2.9388   -4.6480    0.0000 C   0  0  0  0  0  0  0  0  0  0  0  0
    3.7638   -4.6480    0.0000 C   0  0  0  0  0  0  0  0  0  0  0  0
    4.1763   -5.3625    0.0000 N   0  0  0  0  0  0  0  0  0  0  0  0
    5.0013   -5.3625    0.0000 C   0  0  0  0  0  0  0  0  0  0  0  0
    5.4138   -6.0770    0.0000 C   0  0  0  0  0  0  0  0  0  0  0  0
    6.2388   -6.0770    0.0000 O   0  0  0  0  0  0  0  0  0  0  0  0
    6.6513   -6.7914    0.0000 C   0  0  0  0  0  0  0  0  0  0  0  0
    6.2388   -7.5059    0.0000 O   0  0  0  0  0  0  0  0  0  0  0  0
    7.4763   -6.7914    0.0000 C   0  0  3  0  0  0  0  0  0  0  0  0
    7.8888   -6.0770    0.0000 C   0  0  0  0  0  0  0  0  0  0  0  0
    7.4763   -5.3625    0.0000 C   0  0  0  0  0  0  0  0  0  0  0  0
    7.8888   -4.6480    0.0000 C   0  0  0  0  0  0  0  0  0  0  0  0
    7.8888   -7.5059    0.0000 C   0  0  0  0  0  0  0  0  0  0  0  0
    8.7138   -7.5059    0.0000 C   0  0  0  0  0  0  0  0  0  0  0  0
    9.1263   -8.2204    0.0000 C   0  0  0  0  0  0  0  0  0  0  0  0
    8.7138   -8.9349    0.0000 C   0  0  0  0  0  0  0  0  0  0  0  0
    7.8888   -8.9349    0.0000 C   0  0  0  0  0  0  0  0  0  0  0  0
    7.4763   -8.2204    0.0000 C   0  0  0  0  0  0  0  0  0  0  0  0
    3.7638   -6.0770    0.0000 C   0  0  0  0  0  0  0  0  0  0  0  0
    2.9388   -6.0770    0.0000 C   0  0  0  0  0  0  0  0  0  0  0  0
   -1.1862   -3.2191    0.0000 C   0  0  0  0  0  0  0  0  0  0  0  0
   -2.0112   -3.2191    0.0000 C   0  0  0  0  0  0  0  0  0  0  0  0
   -2.4237   -2.5046    0.0000 C   0  0  0  0  0  0  0  0  0  0  0  0
   -2.0112   -1.7901    0.0000 C   0  0  0  0  0  0  0  0  0  0  0  0
   -1.1862   -1.7901    0.0000 C   0  0  0  0  0  0  0  0  0  0  0  0
   -0.7737   -2.5046    0.0000 C   0  0  0  0  0  0  0  0  0  0  0  0
  1  2  1  0  0  0  0
  2  3  1  0  0  0  0
  3  4  1  0  0  0  0
  4  5  1  0  0  0  0
  4 31  1  0  0  0  0
  5  6  2  0  0  0  0
  5  7  1  0  0  0  0
  7  8  1  0  0  0  0
  8  9  1  0  0  0  0
  9 10  1  0  0  0  0
 10 11  1  0  0  0  0
 10 30  1  0  0  0  0
 11 12  1  0  0  0  0
 12 13  1  0  0  0  0
 13 14  1  0  0  0  0
 13 29  1  0  0  0  0
 14 15  1  0  0  0  0
 15 16  1  0  0  0  0
 16 17  1  0  0  0  0
 17 18  2  0  0  0  0
 17 19  1  0  0  0  0
 19 20  1  0  0  0  0
 19 23  1  0  0  0  0
 20 21  1  0  0  0  0
 21 22  1  0  0  0  0
 23 24  2  0  0  0  0
 23 28  1  0  0  0  0
 24 25  1  0  0  0  0
 25 26  2  0  0  0  0
 26 27  1  0  0  0  0
 27 28  2  0  0  0  0
 29 30  1  0  0  0  0
 31 32  2  0  0  0  0
 31 36  1  0  0  0  0
 32 33  1  0  0  0  0
 33 34  2  0  0  0  0
 34 35  1  0  0  0  0
 35 36  2  0  0  0  0
M  END
$$$$

 OpenBabel12191814062D

 23 24  0  0  0  0  0  0  0  0999 V2000
   -0.0000   -4.9500    0.0000 C   0  0  0  0  0  0  0  0  0  0  0  0
    0.7145   -5.3625    0.0000 C   0  0  0  0  0  0  0  0  0  0  0  0
    1.4289   -4.9500    0.0000 C   0  0  0  0  0  0  0  0  0  0  0  0
    2.1434   -5.3625    0.0000 C   0  0  3  0  0  0  0  0  0  0  0  0
    2.1434   -6.1875    0.0000 O   0  0  0  0  0  0  0  0  0  0  0  0
    2.8579   -4.9500    0.0000 C   0  0  0  0  0  0  0  0  0  0  0  0
    3.5724   -5.3625    0.0000 O   0  0  0  0  0  0  0  0  0  0  0  0
    4.2868   -4.9500    0.0000 C   0  0  0  0  0  0  0  0  0  0  0  0
    4.2868   -4.1250    0.0000 C   0  0  0  0  0  0  0  0  0  0  0  0
    5.0013   -3.7125    0.0000 C   0  0  0  0  0  0  0  0  0  0  0  0
    5.7158   -4.1250    0.0000 C   0  0  0  0  0  0  0  0  0  0  0  0
    5.7158   -4.9500    0.0000 C   0  0  0  0  0  0  0  0  0  0  0  0
    5.0013   -5.3625    0.0000 C   0  0  0  0  0  0  0  0  0  0  0  0
    5.0013   -6.1875    0.0000 C   0  0  0  0  0  0  0  0  0  0  0  0
    5.7158   -6.6000    0.0000 O   0  0  0  0  0  0  0  0  0  0  0  0
    4.2868   -6.6000    0.0000 C   0  0  0  0  0  0  0  0  0  0  0  0
    4.2868   -7.4250    0.0000 C   0  0  0  0  0  0  0  0  0  0  0  0
    5.0013   -7.8375    0.0000 C   0  0  0  0  0  0  0  0  0  0  0  0
    5.7158   -7.4250    0.0000 C   0  0  0  0  0  0  0  0  0  0  0  0
    6.4302   -7.8375    0.0000 C   0  0  0  0  0  0  0  0  0  0  0  0
    6.4302   -8.6625    0.0000 C   0  0  0  0  0  0  0  0  0  0  0  0
    5.7158   -9.0750    0.0000 C   0  0  0  0  0  0  0  0  0  0  0  0
    5.0013   -8.6625    0.0000 C   0  0  0  0  0  0  0  0  0  0  0  0
  1  2  1  0  0  0  0
  2  3  1  0  0  0  0
  3  4  1  0  0  0  0
  4  5  1  0  0  0  0
  4  6  1  0  0  0  0
  6  7  1  0  0  0  0
  7  8  1  0  0  0  0
  8  9  2  0  0  0  0
  8 13  1  0  0  0  0
  9 10  1  0  0  0  0
 10 11  2  0  0  0  0
 11 12  1  0  0  0  0
 12 13  2  0  0  0  0
 13 14  1  0  0  0  0
 14 15  2  0  0  0  0
 14 16  1  0  0  0  0
 16 17  1  0  0  0  0
 17 18  1  0  0  0  0
 18 19  2  0  0  0  0
 18 23  1  0  0  0  0
 19 20  1  0  0  0  0
 20 21  2  0  0  0  0
 21 22  1  0  0  0  0
 22 23  2  0  0  0  0
M  END
$$$$

 OpenBabel12191814062D

 27 28  0  0  0  0  0  0  0  0999 V2000
   -1.6703    2.1731    0.0000 C   0  0  0  0  0  0  0  0  0  0  0  0
   -1.3348    1.4194    0.0000 C   0  0  0  0  0  0  0  0  0  0  0  0
   -0.5143    1.3332    0.0000 C   0  0  0  0  0  0  0  0  0  0  0  0
   -0.1787    0.5795    0.0000 C   0  0  3  0  0  0  0  0  0  0  0  0
    0.6282    0.4080    0.0000 C   0  0  0  0  0  0  0  0  0  0  0  0
    0.7145   -0.4125    0.0000 C   0  0  3  0  0  0  0  0  0  0  0  0
   -0.0392   -0.7481    0.0000 N   0  0  0  0  0  0  0  0  0  0  0  0
   -0.2107   -1.5550    0.0000 C   0  0  0  0  0  0  0  0  0  0  0  0
   -0.5912   -0.1350    0.0000 C   0  0  0  0  0  0  0  0  0  0  0  0
    1.4289   -0.8250    0.0000 C   0  0  0  0  0  0  0  0  0  0  0  0
    2.1434   -0.4125    0.0000 O   0  0  0  0  0  0  0  0  0  0  0  0
    1.4289   -1.6500    0.0000 N   0  0  0  0  0  0  0  0  0  0  0  0
    2.1434   -2.0625    0.0000 C   0  0  3  0  0  0  0  0  0  0  0  0
    2.8579   -1.6500    0.0000 C   0  0  3  0  0  0  0  0  0  0  0  0
    2.8579   -0.8250    0.0000 C   0  0  0  0  0  0  0  0  0  0  0  0
    3.5724   -2.0625    0.0000 Cl  0  0  0  0  0  0  0  0  0  0  0  0
    2.1434   -2.8875    0.0000 C   0  0  3  0  0  0  0  0  0  0  0  0
    2.8579   -3.3000    0.0000 O   0  0  0  0  0  0  0  0  0  0  0  0
    2.8579   -4.1250    0.0000 C   0  0  3  0  0  0  0  0  0  0  0  0
    3.5724   -4.5375    0.0000 S   0  0  0  0  0  0  0  0  0  0  0  0
    4.2868   -4.1250    0.0000 C   0  0  0  0  0  0  0  0  0  0  0  0
    2.1434   -4.5375    0.0000 C   0  0  3  0  0  0  0  0  0  0  0  0
    2.1434   -5.3625    0.0000 O   0  0  0  0  0  0  0  0  0  0  0  0
    1.4289   -4.1250    0.0000 C   0  0  3  0  0  0  0  0  0  0  0  0
    0.7145   -4.5375    0.0000 O   0  0  0  0  0  0  0  0  0  0  0  0
    1.4289   -3.3000    0.0000 C   0  0  3  0  0  0  0  0  0  0  0  0
    0.7145   -2.8875    0.0000 O   0  0  0  0  0  0  0  0  0  0  0  0
  1  2  1  0  0  0  0
  2  3  1  0  0  0  0
  3  4  1  0  0  0  0
  4  5  1  0  0  0  0
  4  9  1  0  0  0  0
  5  6  1  0  0  0  0
  6  7  1  0  0  0  0
  6 10  1  0  0  0  0
  7  8  1  0  0  0  0
  7  9  1  0  0  0  0
 10 11  2  0  0  0  0
 10 12  1  0  0  0  0
 12 13  1  0  0  0  0
 13 14  1  0  0  0  0
 13 17  1  0  0  0  0
 14 15  1  0  0  0  0
 14 16  1  0  0  0  0
 17 18  1  0  0  0  0
 17 26  1  0  0  0  0
 18 19  1  0  0  0  0
 19 20  1  0  0  0  0
 19 22  1  0  0  0  0
 20 21  1  0  0  0  0
 22 23  1  0  0  0  0
 22 24  1  0  0  0  0
 24 25  1  0  0  0  0
 24 26  1  0  0  0  0
 26 27  1  0  0  0  0
M  END
$$$$

 OpenBabel12191814062D

 37 40  0  0  0  0  0  0  0  0999 V2000
    3.5724   -7.8375    0.0000 C   0  0  0  0  0  0  0  0  0  0  0  0
    2.8579   -7.4250    0.0000 C   0  0  0  0  0  0  0  0  0  0  0  0
    2.1434   -7.8375    0.0000 C   0  0  0  0  0  0  0  0  0  0  0  0
    1.4289   -7.4250    0.0000 C   0  0  0  0  0  0  0  0  0  0  0  0
    0.7145   -7.8375    0.0000 C   0  0  0  0  0  0  0  0  0  0  0  0
    0.0000   -7.4250    0.0000 C   0  0  0  0  0  0  0  0  0  0  0  0
    0.0000   -6.6000    0.0000 C   0  0  0  0  0  0  0  0  0  0  0  0
    0.7145   -6.1875    0.0000 C   0  0  0  0  0  0  0  0  0  0  0  0
    1.4289   -6.6000    0.0000 C   0  0  0  0  0  0  0  0  0  0  0  0
   -0.7145   -6.1875    0.0000 C   0  0  0  0  0  0  0  0  0  0  0  0
   -1.4289   -6.6000    0.0000 O   0  0  0  0  0  0  0  0  0  0  0  0
   -0.7145   -5.3625    0.0000 N   0  0  0  0  0  0  0  0  0  0  0  0
   -1.4289   -4.9500    0.0000 C   0  0  0  0  0  0  0  0  0  0  0  0
   -2.1434   -5.3625    0.0000 C   0  0  0  0  0  0  0  0  0  0  0  0
   -2.8579   -4.9500    0.0000 C   0  0  0  0  0  0  0  0  0  0  0  0
   -2.8579   -4.1250    0.0000 C   0  0  0  0  0  0  0  0  0  0  0  0
   -2.1434   -3.7125    0.0000 C   0  0  0  0  0  0  0  0  0  0  0  0
   -1.4289   -4.1250    0.0000 C   0  0  0  0  0  0  0  0  0  0  0  0
   -0.7145   -3.7125    0.0000 C   0  0  0  0  0  0  0  0  0  0  0  0
    0.0000   -4.1250    0.0000 O   0  0  0  0  0  0  0  0  0  0  0  0
   -0.7145   -2.8875    0.0000 N   0  0  0  0  0  0  0  0  0  0  0  0
    0.0000   -2.4750    0.0000 C   0  0  0  0  0  0  0  0  0  0  0  0
    0.0000   -1.6500    0.0000 C   0  0  0  0  0  0  0  0  0  0  0  0
    0.7145   -1.2375    0.0000 N   0  0  0  0  0  0  0  0  0  0  0  0
    0.7145   -0.4125    0.0000 C   0  0  0  0  0  0  0  0  0  0  0  0
    1.4289    0.0000    0.0000 C   0  0  0  0  0  0  0  0  0  0  0  0
    2.1434   -0.4125    0.0000 C   0  0  0  0  0  0  0  0  0  0  0  0
    2.8579    0.0000    0.0000 C   0  0  0  0  0  0  0  0  0  0  0  0
    3.5724   -0.4125    0.0000 C   0  0  0  0  0  0  0  0  0  0  0  0
    4.2868   -0.0000    0.0000 O   0  0  0  0  0  0  0  0  0  0  0  0
    4.2868    0.8250    0.0000 C   0  0  0  0  0  0  0  0  0  0  0  0
    3.5724   -1.2375    0.0000 C   0  0  0  0  0  0  0  0  0  0  0  0
    4.2868   -1.6500    0.0000 O   0  0  0  0  0  0  0  0  0  0  0  0
    4.2868   -2.4750    0.0000 C   0  0  0  0  0  0  0  0  0  0  0  0
    2.8579   -1.6500    0.0000 C   0  0  0  0  0  0  0  0  0  0  0  0
    2.1434   -1.2375    0.0000 C   0  0  0  0  0  0  0  0  0  0  0  0
    1.4289   -1.6500    0.0000 C   0  0  0  0  0  0  0  0  0  0  0  0
  1  2  1  0  0  0  0
  2  3  1  0  0  0  0
  3  4  1  0  0  0  0
  4  5  2  0  0  0  0
  4  9  1  0  0  0  0
  5  6  1  0  0  0  0
  6  7  2  0  0  0  0
  7  8  1  0  0  0  0
  7 10  1  0  0  0  0
  8  9  2  0  0  0  0
 10 11  2  0  0  0  0
 10 12  1  0  0  0  0
 12 13  1  0  0  0  0
 13 14  2  0  0  0  0
 13 18  1  0  0  0  0
 14 15  1  0  0  0  0
 15 16  2  0  0  0  0
 16 17  1  0  0  0  0
 17 18  2  0  0  0  0
 18 19  1  0  0  0  0
 19 20  2  0  0  0  0
 19 21  1  0  0  0  0
 21 22  1  0  0  0  0
 22 23  1  0  0  0  0
 23 24  1  0  0  0  0
 24 25  1  0  0  0  0
 24 37  1  0  0  0  0
 25 26  1  0  0  0  0
 26 27  1  0  0  0  0
 27 28  2  0  0  0  0
 27 36  1  0  0  0  0
 28 29  1  0  0  0  0
 29 30  1  0  0  0  0
 29 32  2  0  0  0  0
 30 31  1  0  0  0  0
 32 33  1  0  0  0  0
 32 35  1  0  0  0  0
 33 34  1  0  0  0  0
 35 36  2  0  0  0  0
 36 37  1  0  0  0  0
M  END
$$$$

 OpenBabel12191814062D

 36 38  0  0  0  0  0  0  0  0999 V2000
   -2.8579   -4.1250    0.0000 C   0  0  0  0  0  0  0  0  0  0  0  0
   -2.8579   -4.9500    0.0000 C   0  0  0  0  0  0  0  0  0  0  0  0
   -2.1434   -5.3625    0.0000 C   0  0  0  0  0  0  0  0  0  0  0  0
   -2.1434   -6.1875    0.0000 C   0  0  0  0  0  0  0  0  0  0  0  0
   -1.4289   -6.6000    0.0000 C   0  0  0  0  0  0  0  0  0  0  0  0
   -1.4289   -7.4250    0.0000 C   0  0  0  0  0  0  0  0  0  0  0  0
   -2.1434   -7.8375    0.0000 C   0  0  0  0  0  0  0  0  0  0  0  0
   -2.1434   -8.6625    0.0000 O   0  0  0  0  0  0  0  0  0  0  0  0
   -2.8579   -9.0750    0.0000 C   0  0  0  0  0  0  0  0  0  0  0  0
   -2.8579   -9.9000    0.0000 C   0  0  0  0  0  0  0  0  0  0  0  0
   -2.1434  -10.3125    0.0000 O   0  0  0  0  0  0  0  0  0  0  0  0
   -3.5724  -10.3125    0.0000 N   0  0  0  0  0  0  0  0  0  0  0  0
   -3.5724  -11.1375    0.0000 C   0  0  0  0  0  0  0  0  0  0  0  0
   -4.2868  -11.5500    0.0000 C   0  0  0  0  0  0  0  0  0  0  0  0
   -5.0013  -11.1375    0.0000 N   0  0  0  0  0  0  0  0  0  0  0  0
   -5.0013  -10.3125    0.0000 C   0  0  0  0  0  0  0  0  0  0  0  0
   -4.2868   -9.9000    0.0000 C   0  0  0  0  0  0  0  0  0  0  0  0
   -5.7158  -11.5500    0.0000 C   0  0  0  0  0  0  0  0  0  0  0  0
   -6.4302  -11.1375    0.0000 O   0  0  0  0  0  0  0  0  0  0  0  0
   -5.7158  -12.3750    0.0000 C   0  0  0  0  0  0  0  0  0  0  0  0
   -5.0013  -12.7875    0.0000 O   0  0  0  0  0  0  0  0  0  0  0  0
   -5.0013  -13.6125    0.0000 C   0  0  0  0  0  0  0  0  0  0  0  0
   -4.2868  -14.0250    0.0000 C   0  0  0  0  0  0  0  0  0  0  0  0
   -4.2868  -14.8500    0.0000 C   0  0  0  0  0  0  0  0  0  0  0  0
   -5.0013  -15.2625    0.0000 C   0  0  0  0  0  0  0  0  0  0  0  0
   -5.0013  -16.0875    0.0000 C   0  0  0  0  0  0  0  0  0  0  0  0
   -5.7158  -16.5000    0.0000 C   0  0  0  0  0  0  0  0  0  0  0  0
   -5.7158  -17.3250    0.0000 C   0  0  0  0  0  0  0  0  0  0  0  0
   -5.7158  -14.8500    0.0000 C   0  0  0  0  0  0  0  0  0  0  0  0
   -5.7158  -14.0250    0.0000 C   0  0  0  0  0  0  0  0  0  0  0  0
   -6.4302  -13.6125    0.0000 O   0  0  0  0  0  0  0  0  0  0  0  0
   -6.4302  -12.7875    0.0000 C   0  0  0  0  0  0  0  0  0  0  0  0
   -2.8579   -7.4250    0.0000 C   0  0  0  0  0  0  0  0  0  0  0  0
   -3.5724   -7.8375    0.0000 O   0  0  0  0  0  0  0  0  0  0  0  0
   -4.2868   -7.4250    0.0000 C   0  0  0  0  0  0  0  0  0  0  0  0
   -2.8579   -6.6000    0.0000 C   0  0  0  0  0  0  0  0  0  0  0  0
  1  2  1  0  0  0  0
  2  3  1  0  0  0  0
  3  4  1  0  0  0  0
  4  5  2  0  0  0  0
  4 36  1  0  0  0  0
  5  6  1  0  0  0  0
  6  7  2  0  0  0  0
  7  8  1  0  0  0  0
  7 33  1  0  0  0  0
  8  9  1  0  0  0  0
  9 10  1  0  0  0  0
 10 11  2  0  0  0  0
 10 12  1  0  0  0  0
 12 13  1  0  0  0  0
 12 17  1  0  0  0  0
 13 14  1  0  0  0  0
 14 15  1  0  0  0  0
 15 16  1  0  0  0  0
 15 18  1  0  0  0  0
 16 17  1  0  0  0  0
 18 19  2  0  0  0  0
 18 20  1  0  0  0  0
 20 21  1  0  0  0  0
 21 22  1  0  0  0  0
 22 23  2  0  0  0  0
 22 30  1  0  0  0  0
 23 24  1  0  0  0  0
 24 25  2  0  0  0  0
 25 26  1  0  0  0  0
 25 29  1  0  0  0  0
 26 27  1  0  0  0  0
 27 28  1  0  0  0  0
 29 30  2  0  0  0  0
 30 31  1  0  0  0  0
 31 32  1  0  0  0  0
 33 34  1  0  0  0  0
 33 36  2  0  0  0  0
 34 35  1  0  0  0  0
M  END
$$$$

 OpenBabel12191814062D

 86 86  0  0  0  0  0  0  0  0999 V2000
   -0.4196    3.4374    0.0000 C   0  0  0  0  0  0  0  0  0  0  0  0
   -0.8657    2.7433    0.0000 C   0  0  0  0  0  0  0  0  0  0  0  0
   -0.4876    2.0100    0.0000 C   0  0  0  0  0  0  0  0  0  0  0  0
    0.3364    1.9708    0.0000 C   0  0  3  0  0  0  0  0  0  0  0  0
    0.7145    1.2375    0.0000 N   0  0  0  0  0  0  0  0  0  0  0  0
    0.0000    0.8250    0.0000 C   0  0  0  0  0  0  0  0  0  0  0  0
   -0.7145    1.2375    0.0000 O   0  0  0  0  0  0  0  0  0  0  0  0
    0.0000    0.0000    0.0000 C   0  0  3  0  0  0  0  0  0  0  0  0
   -0.7145   -0.4125    0.0000 C   0  0  3  0  0  0  0  0  0  0  0  0
   -0.7145   -1.2375    0.0000 O   0  0  0  0  0  0  0  0  0  0  0  0
   -1.4289    0.0000    0.0000 C   0  0  3  0  0  0  0  0  0  0  0  0
   -2.1434   -0.4125    0.0000 C   0  0  0  0  0  0  0  0  0  0  0  0
   -1.4289    0.8250    0.0000 C   0  0  0  0  0  0  0  0  0  0  0  0
   -2.1434    1.2375    0.0000 C   0  0  0  0  0  0  0  0  0  0  0  0
   -2.1434    2.0625    0.0000 C   0  0  0  0  0  0  0  0  0  0  0  0
   -2.8579    2.4750    0.0000 C   0  0  0  0  0  0  0  0  0  0  0  0
    0.7145   -0.4125    0.0000 N   0  0  0  0  0  0  0  0  0  0  0  0
    1.5061   -0.1801    0.0000 C   0  0  0  0  0  0  0  0  0  0  0  0
    0.3364   -1.1458    0.0000 C   0  0  0  0  0  0  0  0  0  0  0  0
   -0.4352   -1.4378    0.0000 O   0  0  0  0  0  0  0  0  0  0  0  0
    0.7825   -1.8398    0.0000 C   0  0  3  0  0  0  0  0  0  0  0  0
    0.4044   -2.5731    0.0000 C   0  0  0  0  0  0  0  0  0  0  0  0
    0.8505   -3.2671    0.0000 C   0  0  0  0  0  0  0  0  0  0  0  0
   -0.4196   -2.6124    0.0000 C   0  0  0  0  0  0  0  0  0  0  0  0
    1.6065   -1.8006    0.0000 N   0  0  0  0  0  0  0  0  0  0  0  0
    2.1468   -1.1771    0.0000 C   0  0  0  0  0  0  0  0  0  0  0  0
    1.6849   -2.6218    0.0000 C   0  0  0  0  0  0  0  0  0  0  0  0
    1.1937   -3.2846    0.0000 O   0  0  0  0  0  0  0  0  0  0  0  0
    2.4354   -2.9646    0.0000 C   0  0  3  0  0  0  0  0  0  0  0  0
    2.5138   -3.7858    0.0000 C   0  0  0  0  0  0  0  0  0  0  0  0
    1.8418   -4.2644    0.0000 C   0  0  0  0  0  0  0  0  0  0  0  0
    1.9202   -5.0856    0.0000 C   0  0  0  0  0  0  0  0  0  0  0  0
    1.0913   -3.9216    0.0000 C   0  0  0  0  0  0  0  0  0  0  0  0
    3.1074   -2.4860    0.0000 N   0  0  0  0  0  0  0  0  0  0  0  0
    3.2248   -1.6694    0.0000 C   0  0  0  0  0  0  0  0  0  0  0  0
    3.6174   -3.1345    0.0000 C   0  0  0  0  0  0  0  0  0  0  0  0
    3.3108   -3.9004    0.0000 O   0  0  0  0  0  0  0  0  0  0  0  0
    4.4340   -3.0171    0.0000 C   0  0  3  0  0  0  0  0  0  0  0  0
    4.9440   -3.6656    0.0000 C   0  0  0  0  0  0  0  0  0  0  0  0
    4.6374   -4.4315    0.0000 C   0  0  0  0  0  0  0  0  0  0  0  0
    5.1473   -5.0800    0.0000 C   0  0  0  0  0  0  0  0  0  0  0  0
    3.8208   -4.5489    0.0000 C   0  0  0  0  0  0  0  0  0  0  0  0
    4.7406   -2.2512    0.0000 N   0  0  0  0  0  0  0  0  0  0  0  0
    4.3979   -1.5007    0.0000 C   0  0  0  0  0  0  0  0  0  0  0  0
    5.5203   -2.5210    0.0000 C   0  0  0  0  0  0  0  0  0  0  0  0
    5.6764   -3.3311    0.0000 O   0  0  0  0  0  0  0  0  0  0  0  0
    6.1437   -1.9808    0.0000 C   0  0  3  0  0  0  0  0  0  0  0  0
    6.9234   -2.2506    0.0000 C   0  0  0  0  0  0  0  0  0  0  0  0
    5.9876   -1.1707    0.0000 N   0  0  0  0  0  0  0  0  0  0  0  0
    6.7894   -0.9762    0.0000 C   0  0  0  0  0  0  0  0  0  0  0  0
    7.3587   -1.5732    0.0000 O   0  0  0  0  0  0  0  0  0  0  0  0
    7.0218   -0.1846    0.0000 C   0  0  3  0  0  0  0  0  0  0  0  0
    7.8235    0.0099    0.0000 C   0  0  0  0  0  0  0  0  0  0  0  0
    6.4525    0.4125    0.0000 N   0  0  0  0  0  0  0  0  0  0  0  0
    7.0218    1.0096    0.0000 C   0  0  0  0  0  0  0  0  0  0  0  0
    7.8235    0.8151    0.0000 O   0  0  0  0  0  0  0  0  0  0  0  0
    6.7894    1.8012    0.0000 C   0  0  3  0  0  0  0  0  0  0  0  0
    7.3587    2.3982    0.0000 C   0  0  0  0  0  0  0  0  0  0  0  0
    8.1604    2.2037    0.0000 C   0  0  0  0  0  0  0  0  0  0  0  0
    8.7297    2.8008    0.0000 C   0  0  0  0  0  0  0  0  0  0  0  0
    8.3928    1.4122    0.0000 C   0  0  0  0  0  0  0  0  0  0  0  0
    5.9876    1.9957    0.0000 N   0  0  0  0  0  0  0  0  0  0  0  0
    5.2936    1.5496    0.0000 C   0  0  0  0  0  0  0  0  0  0  0  0
    6.1437    2.8058    0.0000 C   0  0  0  0  0  0  0  0  0  0  0  0
    6.9234    3.0756    0.0000 O   0  0  0  0  0  0  0  0  0  0  0  0
    5.5203    3.3460    0.0000 C   0  0  3  0  0  0  0  0  0  0  0  0
    4.7406    3.0762    0.0000 N   0  0  0  0  0  0  0  0  0  0  0  0
    4.4340    3.8421    0.0000 C   0  0  0  0  0  0  0  0  0  0  0  0
    4.9440    4.4906    0.0000 O   0  0  0  0  0  0  0  0  0  0  0  0
    3.6174    3.9595    0.0000 C   0  0  3  0  0  0  0  0  0  0  0  0
    3.3108    4.7254    0.0000 C   0  0  0  0  0  0  0  0  0  0  0  0
    3.8208    5.3739    0.0000 C   0  0  0  0  0  0  0  0  0  0  0  0
    3.5141    6.1398    0.0000 C   0  0  0  0  0  0  0  0  0  0  0  0
    4.6374    5.2565    0.0000 C   0  0  0  0  0  0  0  0  0  0  0  0
    3.1074    3.3110    0.0000 N   0  0  0  0  0  0  0  0  0  0  0  0
    3.2248    2.4944    0.0000 C   0  0  0  0  0  0  0  0  0  0  0  0
    2.4354    3.7896    0.0000 C   0  0  0  0  0  0  0  0  0  0  0  0
    2.5138    4.6108    0.0000 O   0  0  0  0  0  0  0  0  0  0  0  0
    1.6849    3.4468    0.0000 C   0  0  0  0  0  0  0  0  0  0  0  0
    1.6065    2.6256    0.0000 N   0  0  0  0  0  0  0  0  0  0  0  0
    2.1468    2.0021    0.0000 C   0  0  0  0  0  0  0  0  0  0  0  0
    0.7825    2.6648    0.0000 C   0  0  0  0  0  0  0  0  0  0  0  0
    0.4044    3.3981    0.0000 O   0  0  0  0  0  0  0  0  0  0  0  0
    5.6764    4.1561    0.0000 C   0  0  0  0  0  0  0  0  0  0  0  0
    5.2504    4.8626    0.0000 C   0  0  0  0  0  0  0  0  0  0  0  0
    6.4560    4.4259    0.0000 C   0  0  0  0  0  0  0  0  0  0  0  0
  1  2  1  0  0  0  0
  2  3  1  0  0  0  0
  3  4  1  0  0  0  0
  4  5  1  0  0  0  0
  4 82  1  0  0  0  0
  5  6  1  0  0  0  0
  6  7  2  0  0  0  0
  6  8  1  0  0  0  0
  8  9  1  0  0  0  0
  8 17  1  0  0  0  0
  9 10  1  0  0  0  0
  9 11  1  0  0  0  0
 11 12  1  0  0  0  0
 11 13  1  0  0  0  0
 13 14  1  0  0  0  0
 14 15  2  0  0  0  0
 15 16  1  0  0  0  0
 17 18  1  0  0  0  0
 17 19  1  0  0  0  0
 19 20  2  0  0  0  0
 19 21  1  0  0  0  0
 21 22  1  0  0  0  0
 21 25  1  0  0  0  0
 22 23  1  0  0  0  0
 22 24  1  0  0  0  0
 25 26  1  0  0  0  0
 25 27  1  0  0  0  0
 27 28  2  0  0  0  0
 27 29  1  0  0  0  0
 29 30  1  0  0  0  0
 29 34  1  0  0  0  0
 30 31  1  0  0  0  0
 31 32  1  0  0  0  0
 31 33  1  0  0  0  0
 34 35  1  0  0  0  0
 34 36  1  0  0  0  0
 36 37  2  0  0  0  0
 36 38  1  0  0  0  0
 38 39  1  0  0  0  0
 38 43  1  0  0  0  0
 39 40  1  0  0  0  0
 40 41  1  0  0  0  0
 40 42  1  0  0  0  0
 43 44  1  0  0  0  0
 43 45  1  0  0  0  0
 45 46  2  0  0  0  0
 45 47  1  0  0  0  0
 47 48  1  0  0  0  0
 47 49  1  0  0  0  0
 49 50  1  0  0  0  0
 50 51  2  0  0  0  0
 50 52  1  0  0  0  0
 52 53  1  0  0  0  0
 52 54  1  0  0  0  0
 54 55  1  0  0  0  0
 55 56  2  0  0  0  0
 55 57  1  0  0  0  0
 57 58  1  0  0  0  0
 57 62  1  0  0  0  0
 58 59  1  0  0  0  0
 59 60  1  0  0  0  0
 59 61  1  0  0  0  0
 62 63  1  0  0  0  0
 62 64  1  0  0  0  0
 64 65  2  0  0  0  0
 64 66  1  0  0  0  0
 66 67  1  0  0  0  0
 66 84  1  0  0  0  0
 67 68  1  0  0  0  0
 68 69  2  0  0  0  0
 68 70  1  0  0  0  0
 70 71  1  0  0  0  0
 70 75  1  0  0  0  0
 71 72  1  0  0  0  0
 72 73  1  0  0  0  0
 72 74  1  0  0  0  0
 75 76  1  0  0  0  0
 75 77  1  0  0  0  0
 77 78  2  0  0  0  0
 77 79  1  0  0  0  0
 79 80  1  0  0  0  0
 80 81  1  0  0  0  0
 80 82  1  0  0  0  0
 82 83  2  0  0  0  0
 84 85  1  0  0  0  0
 84 86  1  0  0  0  0
M  END
$$$$

 OpenBabel12191814062D

 39 42  0  0  0  0  0  0  0  0999 V2000
   -3.5148   -9.4401    0.0000 C   0  0  0  0  0  0  0  0  0  0  0  0
   -2.8003   -9.8526    0.0000 C   0  0  0  0  0  0  0  0  0  0  0  0
   -2.0858   -9.4401    0.0000 C   0  0  0  0  0  0  0  0  0  0  0  0
   -1.3713   -9.8526    0.0000 C   0  0  0  0  0  0  0  0  0  0  0  0
   -0.6569   -9.4401    0.0000 C   0  0  0  0  0  0  0  0  0  0  0  0
   -0.6569   -8.6151    0.0000 O   0  0  0  0  0  0  0  0  0  0  0  0
    0.0576   -9.8526    0.0000 O   0  0  0  0  0  0  0  0  0  0  0  0
    0.7721   -9.4401    0.0000 C   0  0  0  0  0  0  0  0  0  0  0  0
    1.4865   -9.8526    0.0000 C   0  0  0  0  0  0  0  0  0  0  0  0
    2.2010   -9.4401    0.0000 C   0  0  0  0  0  0  0  0  0  0  0  0
    2.9155   -9.8526    0.0000 C   0  0  0  0  0  0  0  0  0  0  0  0
    3.6300   -9.4401    0.0000 C   0  0  0  0  0  0  0  0  0  0  0  0
    4.3444   -9.8526    0.0000 C   0  0  0  0  0  0  0  0  0  0  0  0
    4.3444  -10.6776    0.0000 C   0  0  0  0  0  0  0  0  0  0  0  0
    3.6300  -11.0901    0.0000 C   0  0  0  0  0  0  0  0  0  0  0  0
    2.9155  -10.6776    0.0000 C   0  0  0  0  0  0  0  0  0  0  0  0
    5.0589  -11.0901    0.0000 C   0  0  0  0  0  0  0  0  0  0  0  0
    5.8126  -10.7546    0.0000 N   0  0  0  0  0  0  0  0  0  0  0  0
    6.3646  -11.3677    0.0000 C   0  0  0  0  0  0  0  0  0  0  0  0
    5.9521  -12.0822    0.0000 C   0  0  0  0  0  0  0  0  0  0  0  0
    5.1451  -11.9106    0.0000 N   0  0  0  0  0  0  0  0  0  0  0  0
    6.2877  -12.8358    0.0000 C   0  0  0  0  0  0  0  0  0  0  0  0
    7.1081  -12.9221    0.0000 C   0  0  0  0  0  0  0  0  0  0  0  0
    7.4437  -13.6757    0.0000 C   0  0  0  0  0  0  0  0  0  0  0  0
    6.9588  -14.3432    0.0000 C   0  0  0  0  0  0  0  0  0  0  0  0
    6.1383  -14.2569    0.0000 C   0  0  0  0  0  0  0  0  0  0  0  0
    5.8027  -13.5033    0.0000 C   0  0  0  0  0  0  0  0  0  0  0  0
    7.2943  -15.0969    0.0000 N   0  0  0  0  0  0  0  0  0  0  0  0
    8.1148  -15.1831    0.0000 C   0  0  0  0  0  0  0  0  0  0  0  0
    6.8094  -15.7643    0.0000 C   0  0  0  0  0  0  0  0  0  0  0  0
    7.1851  -11.2814    0.0000 C   0  0  0  0  0  0  0  0  0  0  0  0
    7.5206  -10.5278    0.0000 C   0  0  0  0  0  0  0  0  0  0  0  0
    8.3411  -10.4415    0.0000 C   0  0  0  0  0  0  0  0  0  0  0  0
    8.8260  -11.1090    0.0000 C   0  0  0  0  0  0  0  0  0  0  0  0
    8.4905  -11.8626    0.0000 C   0  0  0  0  0  0  0  0  0  0  0  0
    7.6700  -11.9489    0.0000 C   0  0  0  0  0  0  0  0  0  0  0  0
    9.6465  -11.0227    0.0000 N   0  0  0  0  0  0  0  0  0  0  0  0
   10.1314  -11.6902    0.0000 C   0  0  0  0  0  0  0  0  0  0  0  0
    9.9821  -10.2691    0.0000 C   0  0  0  0  0  0  0  0  0  0  0  0
  1  2  1  0  0  0  0
  2  3  1  0  0  0  0
  3  4  1  0  0  0  0
  4  5  1  0  0  0  0
  5  6  2  0  0  0  0
  5  7  1  0  0  0  0
  7  8  1  0  0  0  0
  8  9  1  0  0  0  0
  9 10  2  0  0  0  0
 10 11  1  0  0  0  0
 11 12  2  0  0  0  0
 11 16  1  0  0  0  0
 12 13  1  0  0  0  0
 13 14  2  0  0  0  0
 14 15  1  0  0  0  0
 14 17  1  0  0  0  0
 15 16  2  0  0  0  0
 17 18  1  0  0  0  0
 17 21  2  0  0  0  0
 18 19  1  0  0  0  0
 19 20  2  0  0  0  0
 19 31  1  0  0  0  0
 20 21  1  0  0  0  0
 20 22  1  0  0  0  0
 22 23  2  0  0  0  0
 22 27  1  0  0  0  0
 23 24  1  0  0  0  0
 24 25  2  0  0  0  0
 25 26  1  0  0  0  0
 25 28  1  0  0  0  0
 26 27  2  0  0  0  0
 28 29  1  0  0  0  0
 28 30  1  0  0  0  0
 31 32  2  0  0  0  0
 31 36  1  0  0  0  0
 32 33  1  0  0  0  0
 33 34  2  0  0  0  0
 34 35  1  0  0  0  0
 34 37  1  0  0  0  0
 35 36  2  0  0  0  0
 37 38  1  0  0  0  0
 37 39  1  0  0  0  0
M  END
$$$$

 OpenBabel12191814062D

 46 48  0  0  0  0  0  0  0  0999 V2000
   -3.3701   -3.8488    0.0000 C   0  0  0  0  0  0  0  0  0  0  0  0
   -2.5600   -4.0048    0.0000 C   0  0  0  0  0  0  0  0  0  0  0  0
   -2.0199   -3.3811    0.0000 C   0  0  0  0  0  0  0  0  0  0  0  0
   -1.2097   -3.5370    0.0000 C   0  0  0  0  0  0  0  0  0  0  0  0
   -0.6696   -2.9134    0.0000 C   0  0  3  0  0  0  0  0  0  0  0  0
    0.1405   -3.0693    0.0000 C   0  0  0  0  0  0  0  0  0  0  0  0
    0.6806   -2.4457    0.0000 O   0  0  0  0  0  0  0  0  0  0  0  0
    0.4105   -3.8488    0.0000 O   0  0  0  0  0  0  0  0  0  0  0  0
    1.2207   -4.0048    0.0000 C   0  0  0  0  0  0  0  0  0  0  0  0
    1.4907   -4.7843    0.0000 C   0  0  0  0  0  0  0  0  0  0  0  0
    2.3009   -4.9402    0.0000 N   0  0  0  0  0  0  0  0  0  0  0  0
    2.8409   -4.3166    0.0000 C   0  0  0  0  0  0  0  0  0  0  0  0
    3.6511   -4.4725    0.0000 C   0  0  0  0  0  0  0  0  0  0  0  0
    3.9211   -5.2520    0.0000 N   0  0  0  0  0  0  0  0  0  0  0  0
    4.7313   -5.4079    0.0000 C   0  0  0  0  0  0  0  0  0  0  0  0
    5.0013   -6.1875    0.0000 C   0  0  0  0  0  0  0  0  0  0  0  0
    5.8114   -6.3434    0.0000 O   0  0  0  0  0  0  0  0  0  0  0  0
    6.0815   -7.1230    0.0000 C   0  0  0  0  0  0  0  0  0  0  0  0
    5.5414   -7.7466    0.0000 O   0  0  0  0  0  0  0  0  0  0  0  0
    6.8916   -7.2789    0.0000 C   0  0  3  0  0  0  0  0  0  0  0  0
    7.4317   -6.6552    0.0000 C   0  0  0  0  0  0  0  0  0  0  0  0
    8.2418   -6.8111    0.0000 C   0  0  0  0  0  0  0  0  0  0  0  0
    8.7819   -6.1875    0.0000 C   0  0  0  0  0  0  0  0  0  0  0  0
    9.5921   -6.3434    0.0000 C   0  0  0  0  0  0  0  0  0  0  0  0
    7.1617   -8.0584    0.0000 C   0  0  0  0  0  0  0  0  0  0  0  0
    7.9718   -8.2143    0.0000 C   0  0  0  0  0  0  0  0  0  0  0  0
    8.2418   -8.9939    0.0000 C   0  0  0  0  0  0  0  0  0  0  0  0
    7.7017   -9.6175    0.0000 C   0  0  0  0  0  0  0  0  0  0  0  0
    7.9718  -10.3971    0.0000 O   0  0  0  0  0  0  0  0  0  0  0  0
    7.4317  -11.0207    0.0000 C   0  0  0  0  0  0  0  0  0  0  0  0
    6.8916   -9.4616    0.0000 C   0  0  0  0  0  0  0  0  0  0  0  0
    6.3515  -10.0853    0.0000 O   0  0  0  0  0  0  0  0  0  0  0  0
    5.5414   -9.9293    0.0000 C   0  0  0  0  0  0  0  0  0  0  0  0
    6.6216   -8.6821    0.0000 C   0  0  0  0  0  0  0  0  0  0  0  0
    3.3810   -5.8757    0.0000 C   0  0  0  0  0  0  0  0  0  0  0  0
    2.5709   -5.7198    0.0000 C   0  0  0  0  0  0  0  0  0  0  0  0
   -0.9397   -2.1338    0.0000 C   0  0  0  0  0  0  0  0  0  0  0  0
   -1.7498   -1.9779    0.0000 C   0  0  0  0  0  0  0  0  0  0  0  0
   -2.0199   -1.1984    0.0000 C   0  0  0  0  0  0  0  0  0  0  0  0
   -1.4798   -0.5747    0.0000 C   0  0  0  0  0  0  0  0  0  0  0  0
   -1.7498    0.2048    0.0000 O   0  0  0  0  0  0  0  0  0  0  0  0
   -2.5600    0.3607    0.0000 C   0  0  0  0  0  0  0  0  0  0  0  0
   -0.6696   -0.7306    0.0000 C   0  0  0  0  0  0  0  0  0  0  0  0
   -0.1296   -0.1070    0.0000 O   0  0  0  0  0  0  0  0  0  0  0  0
    0.6806   -0.2629    0.0000 C   0  0  0  0  0  0  0  0  0  0  0  0
   -0.3996   -1.5102    0.0000 C   0  0  0  0  0  0  0  0  0  0  0  0
  1  2  1  0  0  0  0
  2  3  1  0  0  0  0
  3  4  1  0  0  0  0
  4  5  1  0  0  0  0
  5  6  1  0  0  0  0
  5 37  1  0  0  0  0
  6  7  2  0  0  0  0
  6  8  1  0  0  0  0
  8  9  1  0  0  0  0
  9 10  1  0  0  0  0
 10 11  1  0  0  0  0
 11 12  1  0  0  0  0
 11 36  1  0  0  0  0
 12 13  1  0  0  0  0
 13 14  1  0  0  0  0
 14 15  1  0  0  0  0
 14 35  1  0  0  0  0
 15 16  1  0  0  0  0
 16 17  1  0  0  0  0
 17 18  1  0  0  0  0
 18 19  2  0  0  0  0
 18 20  1  0  0  0  0
 20 21  1  0  0  0  0
 20 25  1  0  0  0  0
 21 22  1  0  0  0  0
 22 23  1  0  0  0  0
 23 24  1  0  0  0  0
 25 26  2  0  0  0  0
 25 34  1  0  0  0  0
 26 27  1  0  0  0  0
 27 28  2  0  0  0  0
 28 29  1  0  0  0  0
 28 31  1  0  0  0  0
 29 30  1  0  0  0  0
 31 32  1  0  0  0  0
 31 34  2  0  0  0  0
 32 33  1  0  0  0  0
 35 36  1  0  0  0  0
 37 38  2  0  0  0  0
 37 46  1  0  0  0  0
 38 39  1  0  0  0  0
 39 40  2  0  0  0  0
 40 41  1  0  0  0  0
 40 43  1  0  0  0  0
 41 42  1  0  0  0  0
 43 44  1  0  0  0  0
 43 46  2  0  0  0  0
 44 45  1  0  0  0  0
M  END
$$$$

 OpenBabel12191814062D

 35 39  0  0  0  0  0  0  0  0999 V2000
   -1.8212   -2.1269    0.0000 C   0  0  0  0  0  0  0  0  0  0  0  0
   -1.4087   -1.4124    0.0000 C   0  0  0  0  0  0  0  0  0  0  0  0
   -0.5837   -1.4124    0.0000 C   0  0  0  0  0  0  0  0  0  0  0  0
   -0.1712   -0.6979    0.0000 C   0  0  0  0  0  0  0  0  0  0  0  0
    0.6538   -0.6979    0.0000 C   0  0  0  0  0  0  0  0  0  0  0  0
    1.1387   -0.0305    0.0000 N   0  0  0  0  0  0  0  0  0  0  0  0
    1.9233   -0.2854    0.0000 C   0  0  0  0  0  0  0  0  0  0  0  0
    2.6378    0.1271    0.0000 C   0  0  0  0  0  0  0  0  0  0  0  0
    3.3523   -0.2854    0.0000 C   0  0  0  0  0  0  0  0  0  0  0  0
    4.0668    0.1271    0.0000 C   0  0  0  0  0  0  0  0  0  0  0  0
    4.7812   -0.2854    0.0000 N   0  0  0  0  0  0  0  0  0  0  0  0
    5.4957    0.1271    0.0000 C   0  0  0  0  0  0  0  0  0  0  0  0
    6.2102   -0.2854    0.0000 C   0  0  0  0  0  0  0  0  0  0  0  0
    6.2102   -1.1104    0.0000 N   0  0  0  0  0  0  0  0  0  0  0  0
    5.4957   -1.5229    0.0000 C   0  0  0  0  0  0  0  0  0  0  0  0
    4.7812   -1.1104    0.0000 C   0  0  0  0  0  0  0  0  0  0  0  0
    6.9246   -1.5229    0.0000 C   0  0  0  0  0  0  0  0  0  0  0  0
    7.6391   -1.1104    0.0000 C   0  0  0  0  0  0  0  0  0  0  0  0
    7.6391   -0.2854    0.0000 C   0  0  0  0  0  0  0  0  0  0  0  0
    8.3536    0.1271    0.0000 C   0  0  0  0  0  0  0  0  0  0  0  0
    9.0681   -0.2854    0.0000 C   0  0  0  0  0  0  0  0  0  0  0  0
    9.0681   -1.1104    0.0000 C   0  0  0  0  0  0  0  0  0  0  0  0
    8.3536   -1.5229    0.0000 C   0  0  0  0  0  0  0  0  0  0  0  0
    6.9246   -2.3479    0.0000 C   0  0  0  0  0  0  0  0  0  0  0  0
    7.6391   -2.7604    0.0000 C   0  0  0  0  0  0  0  0  0  0  0  0
    7.6391   -3.5854    0.0000 C   0  0  0  0  0  0  0  0  0  0  0  0
    6.9246   -3.9979    0.0000 C   0  0  0  0  0  0  0  0  0  0  0  0
    6.2102   -3.5854    0.0000 C   0  0  0  0  0  0  0  0  0  0  0  0
    6.2102   -2.7604    0.0000 C   0  0  0  0  0  0  0  0  0  0  0  0
    3.3523   -1.1104    0.0000 C   0  0  0  0  0  0  0  0  0  0  0  0
    2.6378   -1.5229    0.0000 C   0  0  0  0  0  0  0  0  0  0  0  0
    1.9233   -1.1104    0.0000 C   0  0  0  0  0  0  0  0  0  0  0  0
    1.1387   -1.3654    0.0000 N   0  0  0  0  0  0  0  0  0  0  0  0
    0.8838   -2.1500    0.0000 C   0  0  0  0  0  0  0  0  0  0  0  0
    0.0768   -2.3215    0.0000 C   0  0  0  0  0  0  0  0  0  0  0  0
  1  2  1  0  0  0  0
  2  3  1  0  0  0  0
  3  4  1  0  0  0  0
  4  5  1  0  0  0  0
  5  6  2  0  0  0  0
  5 33  1  0  0  0  0
  6  7  1  0  0  0  0
  7  8  2  0  0  0  0
  7 32  1  0  0  0  0
  8  9  1  0  0  0  0
  9 10  1  0  0  0  0
  9 30  2  0  0  0  0
 10 11  1  0  0  0  0
 11 12  1  0  0  0  0
 11 16  1  0  0  0  0
 12 13  1  0  0  0  0
 13 14  1  0  0  0  0
 14 15  1  0  0  0  0
 14 17  1  0  0  0  0
 15 16  1  0  0  0  0
 17 18  1  0  0  0  0
 17 24  1  0  0  0  0
 18 19  2  0  0  0  0
 18 23  1  0  0  0  0
 19 20  1  0  0  0  0
 20 21  2  0  0  0  0
 21 22  1  0  0  0  0
 22 23  2  0  0  0  0
 24 25  2  0  0  0  0
 24 29  1  0  0  0  0
 25 26  1  0  0  0  0
 26 27  2  0  0  0  0
 27 28  1  0  0  0  0
 28 29  2  0  0  0  0
 30 31  1  0  0  0  0
 31 32  2  0  0  0  0
 32 33  1  0  0  0  0
 33 34  1  0  0  0  0
 34 35  1  0  0  0  0
M  END
$$$$

 OpenBabel12191814062D

 29 30  0  0  0  0  0  0  0  0999 V2000
    4.2868    8.2500    0.0000 C   0  0  0  0  0  0  0  0  0  0  0  0
    3.5724    7.8375    0.0000 C   0  0  0  0  0  0  0  0  0  0  0  0
    2.8579    8.2500    0.0000 C   0  0  0  0  0  0  0  0  0  0  0  0
    2.1434    7.8375    0.0000 C   0  0  0  0  0  0  0  0  0  0  0  0
    2.1434    7.0125    0.0000 C   0  0  3  0  0  0  0  0  0  0  0  0
    2.8579    7.4250    0.0000 O   0  0  0  0  0  0  0  0  0  0  0  0
    3.5724    7.0125    0.0000 C   0  0  0  0  0  0  0  0  0  0  0  0
    4.2868    7.4250    0.0000 O   0  0  0  0  0  0  0  0  0  0  0  0
    3.5724    6.1875    0.0000 C   0  0  0  0  0  0  0  0  0  0  0  0
    2.8579    5.7750    0.0000 C   0  0  3  0  0  0  0  0  0  0  0  0
    2.1434    6.1875    0.0000 O   0  0  0  0  0  0  0  0  0  0  0  0
    2.8579    4.9500    0.0000 C   0  0  3  0  0  0  0  0  0  0  0  0
    3.5724    4.5375    0.0000 C   0  0  0  0  0  0  0  0  0  0  0  0
    3.5724    3.7125    0.0000 C   0  0  0  0  0  0  0  0  0  0  0  0
    4.2868    3.3000    0.0000 C   0  0  0  0  0  0  0  0  0  0  0  0
    4.2868    2.4750    0.0000 C   0  0  0  0  0  0  0  0  0  0  0  0
    3.5724    2.0625    0.0000 C   0  0  0  0  0  0  0  0  0  0  0  0
    2.8579    2.4750    0.0000 C   0  0  0  0  0  0  0  0  0  0  0  0
    2.8579    3.3000    0.0000 C   0  0  0  0  0  0  0  0  0  0  0  0
    2.1434    4.5375    0.0000 N   0  0  0  0  0  0  0  0  0  0  0  0
    2.1434    3.7125    0.0000 C   0  0  0  0  0  0  0  0  0  0  0  0
    1.4289    4.9500    0.0000 C   0  0  0  0  0  0  0  0  0  0  0  0
    0.7145    4.5375    0.0000 O   0  0  0  0  0  0  0  0  0  0  0  0
    1.4289    5.7750    0.0000 C   0  0  0  0  0  0  0  0  0  0  0  0
    0.7145    6.1875    0.0000 O   0  0  0  0  0  0  0  0  0  0  0  0
    0.7145    7.0125    0.0000 C   0  0  0  0  0  0  0  0  0  0  0  0
   -0.0000    7.4250    0.0000 O   0  0  0  0  0  0  0  0  0  0  0  0
    1.4289    7.4250    0.0000 C   0  0  3  0  0  0  0  0  0  0  0  0
    1.4289    8.2500    0.0000 C   0  0  0  0  0  0  0  0  0  0  0  0
  1  2  1  0  0  0  0
  2  3  1  0  0  0  0
  3  4  1  0  0  0  0
  4  5  1  0  0  0  0
  5  6  1  0  0  0  0
  5 28  1  0  0  0  0
  6  7  1  0  0  0  0
  7  8  2  0  0  0  0
  7  9  1  0  0  0  0
  9 10  1  0  0  0  0
 10 11  1  0  0  0  0
 10 12  1  0  0  0  0
 12 13  1  0  0  0  0
 12 20  1  0  0  0  0
 13 14  1  0  0  0  0
 14 15  2  0  0  0  0
 14 19  1  0  0  0  0
 15 16  1  0  0  0  0
 16 17  2  0  0  0  0
 17 18  1  0  0  0  0
 18 19  2  0  0  0  0
 20 21  1  0  0  0  0
 20 22  1  0  0  0  0
 22 23  2  0  0  0  0
 22 24  1  0  0  0  0
 24 25  1  0  0  0  0
 25 26  1  0  0  0  0
 26 27  2  0  0  0  0
 26 28  1  0  0  0  0
 28 29  1  0  0  0  0
M  END
$$$$

 OpenBabel12191814062D

 32 33  0  0  0  0  0  0  0  0999 V2000
    4.2868    8.2500    0.0000 C   0  0  0  0  0  0  0  0  0  0  0  0
    3.5724    7.8375    0.0000 C   0  0  0  0  0  0  0  0  0  0  0  0
    2.8579    8.2500    0.0000 C   0  0  0  0  0  0  0  0  0  0  0  0
    2.1434    7.8375    0.0000 C   0  0  0  0  0  0  0  0  0  0  0  0
    2.1434    7.0125    0.0000 C   0  0  3  0  0  0  0  0  0  0  0  0
    2.8579    7.4250    0.0000 O   0  0  0  0  0  0  0  0  0  0  0  0
    3.5724    7.0125    0.0000 C   0  0  0  0  0  0  0  0  0  0  0  0
    4.2868    7.4250    0.0000 O   0  0  0  0  0  0  0  0  0  0  0  0
    3.5724    6.1875    0.0000 C   0  0  0  0  0  0  0  0  0  0  0  0
    2.8579    5.7750    0.0000 C   0  0  3  0  0  0  0  0  0  0  0  0
    3.5724    5.3625    0.0000 O   0  0  0  0  0  0  0  0  0  0  0  0
    4.2868    5.7750    0.0000 C   0  0  0  0  0  0  0  0  0  0  0  0
    4.2868    6.6000    0.0000 O   0  0  0  0  0  0  0  0  0  0  0  0
    5.0013    7.0125    0.0000 C   0  0  0  0  0  0  0  0  0  0  0  0
    2.8579    4.9500    0.0000 C   0  0  3  0  0  0  0  0  0  0  0  0
    3.5724    4.5375    0.0000 C   0  0  0  0  0  0  0  0  0  0  0  0
    3.5724    3.7125    0.0000 C   0  0  0  0  0  0  0  0  0  0  0  0
    4.2868    3.3000    0.0000 C   0  0  0  0  0  0  0  0  0  0  0  0
    4.2868    2.4750    0.0000 C   0  0  0  0  0  0  0  0  0  0  0  0
    3.5724    2.0625    0.0000 C   0  0  0  0  0  0  0  0  0  0  0  0
    2.8579    2.4750    0.0000 C   0  0  0  0  0  0  0  0  0  0  0  0
    2.8579    3.3000    0.0000 C   0  0  0  0  0  0  0  0  0  0  0  0
    2.1434    4.5375    0.0000 N   0  0  0  0  0  0  0  0  0  0  0  0
    2.1434    3.7125    0.0000 C   0  0  0  0  0  0  0  0  0  0  0  0
    1.4289    4.9500    0.0000 C   0  0  0  0  0  0  0  0  0  0  0  0
    0.7145    4.5375    0.0000 O   0  0  0  0  0  0  0  0  0  0  0  0
    1.4289    5.7750    0.0000 C   0  0  0  0  0  0  0  0  0  0  0  0
    0.7145    6.1875    0.0000 O   0  0  0  0  0  0  0  0  0  0  0  0
    0.7145    7.0125    0.0000 C   0  0  0  0  0  0  0  0  0  0  0  0
   -0.0000    7.4250    0.0000 O   0  0  0  0  0  0  0  0  0  0  0  0
    1.4289    7.4250    0.0000 C   0  0  3  0  0  0  0  0  0  0  0  0
    1.4289    8.2500    0.0000 C   0  0  0  0  0  0  0  0  0  0  0  0
  1  2  1  0  0  0  0
  2  3  1  0  0  0  0
  3  4  1  0  0  0  0
  4  5  1  0  0  0  0
  5  6  1  0  0  0  0
  5 31  1  0  0  0  0
  6  7  1  0  0  0  0
  7  8  2  0  0  0  0
  7  9  1  0  0  0  0
  9 10  1  0  0  0  0
 10 11  1  0  0  0  0
 10 15  1  0  0  0  0
 11 12  1  0  0  0  0
 12 13  1  0  0  0  0
 13 14  1  0  0  0  0
 15 16  1  0  0  0  0
 15 23  1  0  0  0  0
 16 17  1  0  0  0  0
 17 18  2  0  0  0  0
 17 22  1  0  0  0  0
 18 19  1  0  0  0  0
 19 20  2  0  0  0  0
 20 21  1  0  0  0  0
 21 22  2  0  0  0  0
 23 24  1  0  0  0  0
 23 25  1  0  0  0  0
 25 26  2  0  0  0  0
 25 27  1  0  0  0  0
 27 28  1  0  0  0  0
 28 29  1  0  0  0  0
 29 30  2  0  0  0  0
 29 31  1  0  0  0  0
 31 32  1  0  0  0  0
M  END
$$$$

 OpenBabel12191814062D

 31 33  0  0  0  0  0  0  0  0999 V2000
    1.5030   -3.4379    0.0000 C   0  0  0  0  0  0  0  0  0  0  0  0
    2.0551   -2.8248    0.0000 C   0  0  0  0  0  0  0  0  0  0  0  0
    1.8001   -2.0402    0.0000 C   0  0  0  0  0  0  0  0  0  0  0  0
    2.3522   -1.4271    0.0000 C   0  0  0  0  0  0  0  0  0  0  0  0
    2.0972   -0.6424    0.0000 C   0  0  0  0  0  0  0  0  0  0  0  0
    1.3126   -0.3875    0.0000 O   0  0  0  0  0  0  0  0  0  0  0  0
    1.3126    0.4375    0.0000 C   0  0  0  0  0  0  0  0  0  0  0  0
    0.6995    0.9895    0.0000 C   0  0  0  0  0  0  0  0  0  0  0  0
    0.8710    1.7965    0.0000 C   0  0  0  0  0  0  0  0  0  0  0  0
    1.6556    2.0514    0.0000 C   0  0  0  0  0  0  0  0  0  0  0  0
    2.2687    1.4994    0.0000 C   0  0  0  0  0  0  0  0  0  0  0  0
    2.0972    0.6924    0.0000 C   0  0  0  0  0  0  0  0  0  0  0  0
    2.5821    0.0250    0.0000 C   0  0  0  0  0  0  0  0  0  0  0  0
    3.4071    0.0250    0.0000 C   0  0  0  0  0  0  0  0  0  0  0  0
    3.8196    0.7395    0.0000 O   0  0  0  0  0  0  0  0  0  0  0  0
    3.8196   -0.6895    0.0000 C   0  0  0  0  0  0  0  0  0  0  0  0
    4.6446   -0.6895    0.0000 C   0  0  0  0  0  0  0  0  0  0  0  0
    5.0571   -1.4039    0.0000 C   0  0  0  0  0  0  0  0  0  0  0  0
    5.8821   -1.4039    0.0000 I   0  0  0  0  0  0  0  0  0  0  0  0
    4.6446   -2.1184    0.0000 C   0  0  0  0  0  0  0  0  0  0  0  0
    5.0571   -2.8329    0.0000 O   0  0  0  0  0  0  0  0  0  0  0  0
    5.8821   -2.8329    0.0000 C   0  0  0  0  0  0  0  0  0  0  0  0
    6.2946   -3.5474    0.0000 C   0  0  0  0  0  0  0  0  0  0  0  0
    7.1196   -3.5474    0.0000 N   0  0  0  0  0  0  0  0  0  0  0  0
    7.5321   -4.2618    0.0000 C   0  0  0  0  0  0  0  0  0  0  0  0
    8.3571   -4.2618    0.0000 C   0  0  0  0  0  0  0  0  0  0  0  0
    7.5321   -2.8329    0.0000 C   0  0  0  0  0  0  0  0  0  0  0  0
    8.3571   -2.8329    0.0000 C   0  0  0  0  0  0  0  0  0  0  0  0
    3.8196   -2.1184    0.0000 C   0  0  0  0  0  0  0  0  0  0  0  0
    3.4071   -2.8329    0.0000 I   0  0  0  0  0  0  0  0  0  0  0  0
    3.4071   -1.4039    0.0000 C   0  0  0  0  0  0  0  0  0  0  0  0
  1  2  1  0  0  0  0
  2  3  1  0  0  0  0
  3  4  1  0  0  0  0
  4  5  1  0  0  0  0
  5  6  1  0  0  0  0
  5 13  2  0  0  0  0
  6  7  1  0  0  0  0
  7  8  2  0  0  0  0
  7 12  1  0  0  0  0
  8  9  1  0  0  0  0
  9 10  2  0  0  0  0
 10 11  1  0  0  0  0
 11 12  2  0  0  0  0
 12 13  1  0  0  0  0
 13 14  1  0  0  0  0
 14 15  2  0  0  0  0
 14 16  1  0  0  0  0
 16 17  2  0  0  0  0
 16 31  1  0  0  0  0
 17 18  1  0  0  0  0
 18 19  1  0  0  0  0
 18 20  2  0  0  0  0
 20 21  1  0  0  0  0
 20 29  1  0  0  0  0
 21 22  1  0  0  0  0
 22 23  1  0  0  0  0
 23 24  1  0  0  0  0
 24 25  1  0  0  0  0
 24 27  1  0  0  0  0
 25 26  1  0  0  0  0
 27 28  1  0  0  0  0
 29 30  1  0  0  0  0
 29 31  2  0  0  0  0
M  END
$$$$

 OpenBabel12191814062D

 29 31  0  0  0  0  0  0  0  0999 V2000
    2.2817   -5.1339    0.0000 C   0  0  0  0  0  0  0  0  0  0  0  0
    2.4532   -4.3269    0.0000 C   0  0  0  0  0  0  0  0  0  0  0  0
    1.8401   -3.7749    0.0000 C   0  0  0  0  0  0  0  0  0  0  0  0
    2.0116   -2.9679    0.0000 C   0  0  0  0  0  0  0  0  0  0  0  0
    1.3985   -2.4159    0.0000 C   0  0  0  0  0  0  0  0  0  0  0  0
    0.5916   -2.5874    0.0000 O   0  0  0  0  0  0  0  0  0  0  0  0
    0.1791   -1.8729    0.0000 C   0  0  0  0  0  0  0  0  0  0  0  0
   -0.6279   -1.7014    0.0000 C   0  0  0  0  0  0  0  0  0  0  0  0
   -0.8828   -0.9168    0.0000 C   0  0  0  0  0  0  0  0  0  0  0  0
   -0.3308   -0.3037    0.0000 C   0  0  0  0  0  0  0  0  0  0  0  0
    0.4762   -0.4752    0.0000 C   0  0  0  0  0  0  0  0  0  0  0  0
    0.7311   -1.2598    0.0000 C   0  0  0  0  0  0  0  0  0  0  0  0
    1.4848   -1.5954    0.0000 C   0  0  0  0  0  0  0  0  0  0  0  0
    2.1993   -1.1829    0.0000 C   0  0  0  0  0  0  0  0  0  0  0  0
    2.1993   -0.3579    0.0000 O   0  0  0  0  0  0  0  0  0  0  0  0
    2.9137   -1.5954    0.0000 C   0  0  0  0  0  0  0  0  0  0  0  0
    3.6282   -1.1829    0.0000 C   0  0  0  0  0  0  0  0  0  0  0  0
    4.3427   -1.5954    0.0000 C   0  0  0  0  0  0  0  0  0  0  0  0
    5.0571   -1.1829    0.0000 I   0  0  0  0  0  0  0  0  0  0  0  0
    4.3427   -2.4204    0.0000 C   0  0  0  0  0  0  0  0  0  0  0  0
    5.0571   -2.8329    0.0000 O   0  0  0  0  0  0  0  0  0  0  0  0
    5.7716   -2.4204    0.0000 C   0  0  0  0  0  0  0  0  0  0  0  0
    6.4861   -2.8329    0.0000 C   0  0  0  0  0  0  0  0  0  0  0  0
    7.2006   -2.4204    0.0000 N   0  0  0  0  0  0  0  0  0  0  0  0
    7.9150   -2.8329    0.0000 C   0  0  0  0  0  0  0  0  0  0  0  0
    8.6295   -2.4204    0.0000 C   0  0  0  0  0  0  0  0  0  0  0  0
    3.6282   -2.8329    0.0000 C   0  0  0  0  0  0  0  0  0  0  0  0
    3.6282   -3.6579    0.0000 I   0  0  0  0  0  0  0  0  0  0  0  0
    2.9137   -2.4204    0.0000 C   0  0  0  0  0  0  0  0  0  0  0  0
  1  2  1  0  0  0  0
  2  3  1  0  0  0  0
  3  4  1  0  0  0  0
  4  5  1  0  0  0  0
  5  6  1  0  0  0  0
  5 13  2  0  0  0  0
  6  7  1  0  0  0  0
  7  8  2  0  0  0  0
  7 12  1  0  0  0  0
  8  9  1  0  0  0  0
  9 10  2  0  0  0  0
 10 11  1  0  0  0  0
 11 12  2  0  0  0  0
 12 13  1  0  0  0  0
 13 14  1  0  0  0  0
 14 15  2  0  0  0  0
 14 16  1  0  0  0  0
 16 17  2  0  0  0  0
 16 29  1  0  0  0  0
 17 18  1  0  0  0  0
 18 19  1  0  0  0  0
 18 20  2  0  0  0  0
 20 21  1  0  0  0  0
 20 27  1  0  0  0  0
 21 22  1  0  0  0  0
 22 23  1  0  0  0  0
 23 24  1  0  0  0  0
 24 25  1  0  0  0  0
 25 26  1  0  0  0  0
 27 28  1  0  0  0  0
 27 29  2  0  0  0  0
M  END
$$$$

 OpenBabel12191814062D

 23 24  0  0  0  0  0  0  0  0999 V2000
    0.0000   -4.9500    0.0000 C   0  0  0  0  0  0  0  0  0  0  0  0
    0.7145   -5.3625    0.0000 C   0  0  0  0  0  0  0  0  0  0  0  0
    1.4289   -4.9500    0.0000 C   0  0  0  0  0  0  0  0  0  0  0  0
    2.1434   -5.3625    0.0000 C   0  0  0  0  0  0  0  0  0  0  0  0
    2.8579   -4.9500    0.0000 C   0  0  0  0  0  0  0  0  0  0  0  0
    3.5724   -5.3625    0.0000 C   0  0  0  0  0  0  0  0  0  0  0  0
    4.2868   -4.9500    0.0000 C   0  0  0  0  0  0  0  0  0  0  0  0
    5.0013   -5.3625    0.0000 C   0  0  0  0  0  0  0  0  0  0  0  0
    5.7158   -4.9500    0.0000 O   0  0  0  0  0  0  0  0  0  0  0  0
    5.0013   -6.1875    0.0000 C   0  0  0  0  0  0  0  0  0  0  0  0
    5.7158   -6.6000    0.0000 C   0  0  3  0  0  0  0  0  0  0  0  0
    6.4302   -6.1875    0.0000 C   0  0  0  0  0  0  0  0  0  0  0  0
    7.1447   -6.6000    0.0000 C   0  0  0  0  0  0  0  0  0  0  0  0
    7.8592   -6.1875    0.0000 C   0  0  0  0  0  0  0  0  0  0  0  0
    7.1447   -7.4250    0.0000 C   0  0  0  0  0  0  0  0  0  0  0  0
    6.4302   -7.8375    0.0000 C   0  0  0  0  0  0  0  0  0  0  0  0
    5.7158   -7.4250    0.0000 C   0  0  3  0  0  0  0  0  0  0  0  0
    5.0013   -7.8375    0.0000 C   0  0  0  0  0  0  0  0  0  0  0  0
    4.2868   -7.4250    0.0000 C   0  0  0  0  0  0  0  0  0  0  0  0
    5.0013   -8.6625    0.0000 C   0  0  0  0  0  0  0  0  0  0  0  0
    4.2868   -6.6000    0.0000 C   0  0  0  0  0  0  0  0  0  0  0  0
    3.8019   -7.2674    0.0000 O   0  0  0  0  0  0  0  0  0  0  0  0
    3.5724   -6.1875    0.0000 C   0  0  0  0  0  0  0  0  0  0  0  0
  1  2  1  0  0  0  0
  2  3  1  0  0  0  0
  3  4  1  0  0  0  0
  4  5  1  0  0  0  0
  5  6  1  0  0  0  0
  6  7  2  0  0  0  0
  6 23  1  0  0  0  0
  7  8  1  0  0  0  0
  8  9  1  0  0  0  0
  8 10  2  0  0  0  0
 10 11  1  0  0  0  0
 10 21  1  0  0  0  0
 11 12  1  0  0  0  0
 11 17  1  0  0  0  0
 12 13  2  0  0  0  0
 13 14  1  0  0  0  0
 13 15  1  0  0  0  0
 15 16  1  0  0  0  0
 16 17  1  0  0  0  0
 17 18  1  0  0  0  0
 18 19  1  0  0  0  0
 18 20  2  0  0  0  0
 21 22  1  0  0  0  0
 21 23  2  0  0  0  0
M  END
$$$$

 OpenBabel12191814062D

 39 42  0  0  0  0  0  0  0  0999 V2000
   -5.0013  -10.3125    0.0000 C   0  0  0  0  0  0  0  0  0  0  0  0
   -4.2868   -9.9000    0.0000 C   0  0  0  0  0  0  0  0  0  0  0  0
   -4.2868   -9.0750    0.0000 C   0  0  0  0  0  0  0  0  0  0  0  0
   -3.5724   -8.6625    0.0000 C   0  0  0  0  0  0  0  0  0  0  0  0
   -3.5724   -7.8375    0.0000 C   0  0  0  0  0  0  0  0  0  0  0  0
   -2.8579   -7.4250    0.0000 C   0  0  0  0  0  0  0  0  0  0  0  0
   -2.8579   -6.6000    0.0000 C   0  0  0  0  0  0  0  0  0  0  0  0
   -2.1434   -6.1875    0.0000 C   0  0  0  0  0  0  0  0  0  0  0  0
   -1.4289   -6.6000    0.0000 C   0  0  0  0  0  0  0  0  0  0  0  0
   -1.4289   -7.4250    0.0000 C   0  0  0  0  0  0  0  0  0  0  0  0
   -2.1434   -7.8375    0.0000 C   0  0  0  0  0  0  0  0  0  0  0  0
   -0.7145   -6.1875    0.0000 C   0  0  0  0  0  0  0  0  0  0  0  0
    0.0000   -6.6000    0.0000 O   0  0  0  0  0  0  0  0  0  0  0  0
   -0.7145   -5.3625    0.0000 N   0  0  0  0  0  0  0  0  0  0  0  0
   -1.4289   -4.9500    0.0000 C   0  0  0  0  0  0  0  0  0  0  0  0
   -2.1434   -5.3625    0.0000 C   0  0  0  0  0  0  0  0  0  0  0  0
   -2.8579   -4.9500    0.0000 C   0  0  0  0  0  0  0  0  0  0  0  0
   -2.8579   -4.1250    0.0000 C   0  0  0  0  0  0  0  0  0  0  0  0
   -2.1434   -3.7125    0.0000 C   0  0  0  0  0  0  0  0  0  0  0  0
   -1.4289   -4.1250    0.0000 C   0  0  0  0  0  0  0  0  0  0  0  0
   -0.7145   -3.7125    0.0000 C   0  0  0  0  0  0  0  0  0  0  0  0
    0.0000   -4.1250    0.0000 O   0  0  0  0  0  0  0  0  0  0  0  0
   -0.7145   -2.8875    0.0000 N   0  0  0  0  0  0  0  0  0  0  0  0
    0.0000   -2.4750    0.0000 C   0  0  0  0  0  0  0  0  0  0  0  0
    0.0000   -1.6500    0.0000 C   0  0  0  0  0  0  0  0  0  0  0  0
    0.7145   -1.2375    0.0000 N   0  0  0  0  0  0  0  0  0  0  0  0
    0.7145   -0.4125    0.0000 C   0  0  0  0  0  0  0  0  0  0  0  0
    1.4289    0.0000    0.0000 C   0  0  0  0  0  0  0  0  0  0  0  0
    2.1434   -0.4125    0.0000 C   0  0  0  0  0  0  0  0  0  0  0  0
    2.8579    0.0000    0.0000 C   0  0  0  0  0  0  0  0  0  0  0  0
    3.5724   -0.4125    0.0000 C   0  0  0  0  0  0  0  0  0  0  0  0
    4.2868   -0.0000    0.0000 O   0  0  0  0  0  0  0  0  0  0  0  0
    4.2868    0.8250    0.0000 C   0  0  0  0  0  0  0  0  0  0  0  0
    3.5724   -1.2375    0.0000 C   0  0  0  0  0  0  0  0  0  0  0  0
    4.2868   -1.6500    0.0000 O   0  0  0  0  0  0  0  0  0  0  0  0
    4.2868   -2.4750    0.0000 C   0  0  0  0  0  0  0  0  0  0  0  0
    2.8579   -1.6500    0.0000 C   0  0  0  0  0  0  0  0  0  0  0  0
    2.1434   -1.2375    0.0000 C   0  0  0  0  0  0  0  0  0  0  0  0
    1.4289   -1.6500    0.0000 C   0  0  0  0  0  0  0  0  0  0  0  0
  1  2  1  0  0  0  0
  2  3  1  0  0  0  0
  3  4  1  0  0  0  0
  4  5  1  0  0  0  0
  5  6  1  0  0  0  0
  6  7  2  0  0  0  0
  6 11  1  0  0  0  0
  7  8  1  0  0  0  0
  8  9  2  0  0  0  0
  9 10  1  0  0  0  0
  9 12  1  0  0  0  0
 10 11  2  0  0  0  0
 12 13  2  0  0  0  0
 12 14  1  0  0  0  0
 14 15  1  0  0  0  0
 15 16  2  0  0  0  0
 15 20  1  0  0  0  0
 16 17  1  0  0  0  0
 17 18  2  0  0  0  0
 18 19  1  0  0  0  0
 19 20  2  0  0  0  0
 20 21  1  0  0  0  0
 21 22  2  0  0  0  0
 21 23  1  0  0  0  0
 23 24  1  0  0  0  0
 24 25  1  0  0  0  0
 25 26  1  0  0  0  0
 26 27  1  0  0  0  0
 26 39  1  0  0  0  0
 27 28  1  0  0  0  0
 28 29  1  0  0  0  0
 29 30  2  0  0  0  0
 29 38  1  0  0  0  0
 30 31  1  0  0  0  0
 31 32  1  0  0  0  0
 31 34  2  0  0  0  0
 32 33  1  0  0  0  0
 34 35  1  0  0  0  0
 34 37  1  0  0  0  0
 35 36  1  0  0  0  0
 37 38  2  0  0  0  0
 38 39  1  0  0  0  0
M  END
$$$$

 OpenBabel12191814062D

 22 21  0  0  0  0  0  0  0  0999 V2000
    6.7105    4.6993    0.0000 C   0  0  0  0  0  0  0  0  0  0  0  0
    7.4250    4.2868    0.0000 C   0  0  0  0  0  0  0  0  0  0  0  0
    8.1395    4.6993    0.0000 C   0  0  0  0  0  0  0  0  0  0  0  0
    8.8539    4.2868    0.0000 C   0  0  0  0  0  0  0  0  0  0  0  0
    9.5684    4.6993    0.0000 C   0  0  0  0  0  0  0  0  0  0  0  0
   10.2829    4.2868    0.0000 C   0  0  0  0  0  0  0  0  0  0  0  0
   10.9974    4.6993    0.0000 C   0  0  0  0  0  0  0  0  0  0  0  0
   11.7118    4.2868    0.0000 C   0  0  3  0  0  0  0  0  0  0  0  0
   11.7118    3.4618    0.0000 O   0  0  0  0  0  0  0  0  0  0  0  0
   12.4263    4.6993    0.0000 C   0  0  3  0  0  0  0  0  0  0  0  0
   12.4263    5.5243    0.0000 C   0  0  0  0  0  0  0  0  0  0  0  0
   13.1408    4.2868    0.0000 C   0  0  0  0  0  0  0  0  0  0  0  0
   13.1408    3.4618    0.0000 O   0  0  0  0  0  0  0  0  0  0  0  0
   13.8552    4.6993    0.0000 O   0  0  0  0  0  0  0  0  0  0  0  0
   14.5697    4.2868    0.0000 C   0  0  3  0  0  0  0  0  0  0  0  0
   14.5697    3.4618    0.0000 C   0  0  0  0  0  0  0  0  0  0  0  0
   15.2842    3.0493    0.0000 C   0  0  0  0  0  0  0  0  0  0  0  0
   13.8552    3.0493    0.0000 C   0  0  0  0  0  0  0  0  0  0  0  0
   15.2842    4.6993    0.0000 C   0  0  0  0  0  0  0  0  0  0  0  0
   15.2842    5.5243    0.0000 O   0  0  0  0  0  0  0  0  0  0  0  0
   15.9987    4.2868    0.0000 O   0  0  0  0  0  0  0  0  0  0  0  0
   16.7131    4.6993    0.0000 C   0  0  0  0  0  0  0  0  0  0  0  0
  1  2  1  0  0  0  0
  2  3  1  0  0  0  0
  3  4  1  0  0  0  0
  4  5  1  0  0  0  0
  5  6  1  0  0  0  0
  6  7  1  0  0  0  0
  7  8  1  0  0  0  0
  8  9  1  0  0  0  0
  8 10  1  0  0  0  0
 10 11  1  0  0  0  0
 10 12  1  0  0  0  0
 12 13  2  0  0  0  0
 12 14  1  0  0  0  0
 14 15  1  0  0  0  0
 15 16  1  0  0  0  0
 15 19  1  0  0  0  0
 16 17  1  0  0  0  0
 16 18  1  0  0  0  0
 19 20  2  0  0  0  0
 19 21  1  0  0  0  0
 21 22  1  0  0  0  0
M  END
$$$$

 OpenBabel12191814062D

 37 38  0  0  0  0  0  0  0  0999 V2000
   -4.2868   -0.8250    0.0000 C   0  0  0  0  0  0  0  0  0  0  0  0
   -3.5724   -0.4125    0.0000 C   0  0  0  0  0  0  0  0  0  0  0  0
   -2.8579   -0.8250    0.0000 C   0  0  0  0  0  0  0  0  0  0  0  0
   -2.1434   -0.4125    0.0000 C   0  0  0  0  0  0  0  0  0  0  0  0
   -1.4289   -0.8250    0.0000 C   0  0  0  0  0  0  0  0  0  0  0  0
   -0.7145   -0.4125    0.0000 C   0  0  0  0  0  0  0  0  0  0  0  0
   -0.0000   -0.8250    0.0000 C   0  0  0  0  0  0  0  0  0  0  0  0
    0.7145   -0.4125    0.0000 C   0  0  3  0  0  0  0  0  0  0  0  0
   -0.0000    0.0000    0.0000 C   0  0  0  0  0  0  0  0  0  0  0  0
   -0.0000    0.8250    0.0000 C   0  0  0  0  0  0  0  0  0  0  0  0
   -0.7145    1.2375    0.0000 O   0  0  0  0  0  0  0  0  0  0  0  0
    0.7145    1.2375    0.0000 O   0  0  0  0  0  0  0  0  0  0  0  0
    1.4289    0.8250    0.0000 C   0  0  3  0  0  0  0  0  0  0  0  0
    1.4289    1.6500    0.0000 C   0  0  0  0  0  0  0  0  0  0  0  0
    2.1434    2.0625    0.0000 C   0  0  0  0  0  0  0  0  0  0  0  0
    0.7145    2.0625    0.0000 C   0  0  0  0  0  0  0  0  0  0  0  0
    2.1434    1.2375    0.0000 C   0  0  0  0  0  0  0  0  0  0  0  0
    2.6283    1.9049    0.0000 O   0  0  0  0  0  0  0  0  0  0  0  0
    2.8579    0.8250    0.0000 N   0  0  0  0  0  0  0  0  0  0  0  0
    3.5724    1.2375    0.0000 C   0  0  0  0  0  0  0  0  0  0  0  0
    2.8579    0.0000    0.0000 C   0  0  3  0  0  0  0  0  0  0  0  0
    3.5724   -0.4125    0.0000 C   0  0  0  0  0  0  0  0  0  0  0  0
    4.2868    0.0000    0.0000 C   0  0  0  0  0  0  0  0  0  0  0  0
    4.2868    0.8250    0.0000 C   0  0  0  0  0  0  0  0  0  0  0  0
    5.0013    1.2375    0.0000 C   0  0  0  0  0  0  0  0  0  0  0  0
    5.7158    0.8250    0.0000 C   0  0  0  0  0  0  0  0  0  0  0  0
    5.7158    0.0000    0.0000 C   0  0  0  0  0  0  0  0  0  0  0  0
    5.0013   -0.4125    0.0000 C   0  0  0  0  0  0  0  0  0  0  0  0
    2.1434   -0.4125    0.0000 C   0  0  3  0  0  0  0  0  0  0  0  0
    2.1434   -1.2375    0.0000 C   0  0  0  0  0  0  0  0  0  0  0  0
    1.4289   -1.6500    0.0000 C   0  0  0  0  0  0  0  0  0  0  0  0
    1.4289   -2.4750    0.0000 O   0  0  0  0  0  0  0  0  0  0  0  0
    0.7145   -1.2375    0.0000 O   0  0  0  0  0  0  0  0  0  0  0  0
    2.8579   -0.8250    0.0000 O   0  0  0  0  0  0  0  0  0  0  0  0
    2.8579   -1.6500    0.0000 C   0  0  0  0  0  0  0  0  0  0  0  0
    3.5724   -2.0625    0.0000 O   0  0  0  0  0  0  0  0  0  0  0  0
    3.5724   -2.8875    0.0000 C   0  0  0  0  0  0  0  0  0  0  0  0
  1  2  1  0  0  0  0
  2  3  1  0  0  0  0
  3  4  1  0  0  0  0
  4  5  1  0  0  0  0
  5  6  1  0  0  0  0
  6  7  1  0  0  0  0
  7  8  1  0  0  0  0
  8  9  1  0  0  0  0
  8 33  1  0  0  0  0
  9 10  1  0  0  0  0
 10 11  2  0  0  0  0
 10 12  1  0  0  0  0
 12 13  1  0  0  0  0
 13 14  1  0  0  0  0
 13 17  1  0  0  0  0
 14 15  1  0  0  0  0
 14 16  1  0  0  0  0
 17 18  2  0  0  0  0
 17 19  1  0  0  0  0
 19 20  1  0  0  0  0
 19 21  1  0  0  0  0
 21 22  1  0  0  0  0
 21 29  1  0  0  0  0
 22 23  1  0  0  0  0
 23 24  2  0  0  0  0
 23 28  1  0  0  0  0
 24 25  1  0  0  0  0
 25 26  2  0  0  0  0
 26 27  1  0  0  0  0
 27 28  2  0  0  0  0
 29 30  1  0  0  0  0
 29 34  1  0  0  0  0
 30 31  1  0  0  0  0
 31 32  2  0  0  0  0
 31 33  1  0  0  0  0
 34 35  1  0  0  0  0
 35 36  1  0  0  0  0
 36 37  1  0  0  0  0
M  END
$$$$

 OpenBabel12191814062D

 34 35  0  0  0  0  0  0  0  0999 V2000
   -4.2868   -0.8250    0.0000 C   0  0  0  0  0  0  0  0  0  0  0  0
   -3.5724   -0.4125    0.0000 C   0  0  0  0  0  0  0  0  0  0  0  0
   -2.8579   -0.8250    0.0000 C   0  0  0  0  0  0  0  0  0  0  0  0
   -2.1434   -0.4125    0.0000 C   0  0  0  0  0  0  0  0  0  0  0  0
   -1.4289   -0.8250    0.0000 C   0  0  0  0  0  0  0  0  0  0  0  0
   -0.7145   -0.4125    0.0000 C   0  0  0  0  0  0  0  0  0  0  0  0
   -0.0000   -0.8250    0.0000 C   0  0  0  0  0  0  0  0  0  0  0  0
    0.7145   -0.4125    0.0000 C   0  0  3  0  0  0  0  0  0  0  0  0
   -0.0000    0.0000    0.0000 C   0  0  0  0  0  0  0  0  0  0  0  0
   -0.0000    0.8250    0.0000 C   0  0  0  0  0  0  0  0  0  0  0  0
   -0.7145    1.2375    0.0000 O   0  0  0  0  0  0  0  0  0  0  0  0
    0.7145    1.2375    0.0000 O   0  0  0  0  0  0  0  0  0  0  0  0
    1.4289    0.8250    0.0000 C   0  0  3  0  0  0  0  0  0  0  0  0
    1.4289    1.6500    0.0000 C   0  0  0  0  0  0  0  0  0  0  0  0
    2.1434    2.0625    0.0000 C   0  0  0  0  0  0  0  0  0  0  0  0
    0.7145    2.0625    0.0000 C   0  0  0  0  0  0  0  0  0  0  0  0
    2.1434    1.2375    0.0000 C   0  0  0  0  0  0  0  0  0  0  0  0
    2.6283    1.9049    0.0000 O   0  0  0  0  0  0  0  0  0  0  0  0
    2.8579    0.8250    0.0000 N   0  0  0  0  0  0  0  0  0  0  0  0
    3.5724    1.2375    0.0000 C   0  0  0  0  0  0  0  0  0  0  0  0
    2.8579    0.0000    0.0000 C   0  0  3  0  0  0  0  0  0  0  0  0
    3.5724   -0.4125    0.0000 C   0  0  0  0  0  0  0  0  0  0  0  0
    4.2868    0.0000    0.0000 C   0  0  0  0  0  0  0  0  0  0  0  0
    4.2868    0.8250    0.0000 C   0  0  0  0  0  0  0  0  0  0  0  0
    5.0013    1.2375    0.0000 C   0  0  0  0  0  0  0  0  0  0  0  0
    5.7158    0.8250    0.0000 C   0  0  0  0  0  0  0  0  0  0  0  0
    5.7158    0.0000    0.0000 C   0  0  0  0  0  0  0  0  0  0  0  0
    5.0013   -0.4125    0.0000 C   0  0  0  0  0  0  0  0  0  0  0  0
    2.1434   -0.4125    0.0000 C   0  0  3  0  0  0  0  0  0  0  0  0
    1.4289    0.0000    0.0000 O   0  0  0  0  0  0  0  0  0  0  0  0
    2.1434   -1.2375    0.0000 C   0  0  0  0  0  0  0  0  0  0  0  0
    1.4289   -1.6500    0.0000 C   0  0  0  0  0  0  0  0  0  0  0  0
    1.4289   -2.4750    0.0000 O   0  0  0  0  0  0  0  0  0  0  0  0
    0.7145   -1.2375    0.0000 O   0  0  0  0  0  0  0  0  0  0  0  0
  1  2  1  0  0  0  0
  2  3  1  0  0  0  0
  3  4  1  0  0  0  0
  4  5  1  0  0  0  0
  5  6  1  0  0  0  0
  6  7  1  0  0  0  0
  7  8  1  0  0  0  0
  8  9  1  0  0  0  0
  8 34  1  0  0  0  0
  9 10  1  0  0  0  0
 10 11  2  0  0  0  0
 10 12  1  0  0  0  0
 12 13  1  0  0  0  0
 13 14  1  0  0  0  0
 13 17  1  0  0  0  0
 14 15  1  0  0  0  0
 14 16  1  0  0  0  0
 17 18  2  0  0  0  0
 17 19  1  0  0  0  0
 19 20  1  0  0  0  0
 19 21  1  0  0  0  0
 21 22  1  0  0  0  0
 21 29  1  0  0  0  0
 22 23  1  0  0  0  0
 23 24  2  0  0  0  0
 23 28  1  0  0  0  0
 24 25  1  0  0  0  0
 25 26  2  0  0  0  0
 26 27  1  0  0  0  0
 27 28  2  0  0  0  0
 29 30  1  0  0  0  0
 29 31  1  0  0  0  0
 31 32  1  0  0  0  0
 32 33  2  0  0  0  0
 32 34  1  0  0  0  0
M  END
$$$$

 OpenBabel12191814062D

 34 35  0  0  0  0  0  0  0  0999 V2000
   -2.8579    1.6500    0.0000 C   0  0  0  0  0  0  0  0  0  0  0  0
   -2.1434    1.2375    0.0000 C   0  0  0  0  0  0  0  0  0  0  0  0
   -1.4289    1.6500    0.0000 C   0  0  0  0  0  0  0  0  0  0  0  0
   -0.7145    1.2375    0.0000 C   0  0  0  0  0  0  0  0  0  0  0  0
   -0.0000    1.6500    0.0000 C   0  0  0  0  0  0  0  0  0  0  0  0
    0.7145    1.2375    0.0000 C   0  0  0  0  0  0  0  0  0  0  0  0
    1.4289    1.6500    0.0000 C   0  0  0  0  0  0  0  0  0  0  0  0
    1.4289    2.4750    0.0000 C   0  0  3  0  0  0  0  0  0  0  0  0
    0.7145    2.0625    0.0000 O   0  0  0  0  0  0  0  0  0  0  0  0
    0.0000    2.4750    0.0000 C   0  0  0  0  0  0  0  0  0  0  0  0
   -0.7145    2.0625    0.0000 O   0  0  0  0  0  0  0  0  0  0  0  0
   -0.0000    3.3000    0.0000 C   0  0  0  0  0  0  0  0  0  0  0  0
    0.7145    3.7125    0.0000 C   0  0  3  0  0  0  0  0  0  0  0  0
    1.4289    3.3000    0.0000 O   0  0  0  0  0  0  0  0  0  0  0  0
    0.7145    4.5375    0.0000 C   0  0  3  0  0  0  0  0  0  0  0  0
   -0.0000    4.9500    0.0000 C   0  0  0  0  0  0  0  0  0  0  0  0
   -0.0000    5.7750    0.0000 C   0  0  0  0  0  0  0  0  0  0  0  0
   -0.7145    6.1875    0.0000 C   0  0  0  0  0  0  0  0  0  0  0  0
   -0.7145    7.0125    0.0000 C   0  0  0  0  0  0  0  0  0  0  0  0
   -0.0000    7.4250    0.0000 C   0  0  0  0  0  0  0  0  0  0  0  0
    0.7145    7.0125    0.0000 C   0  0  0  0  0  0  0  0  0  0  0  0
    0.7145    6.1875    0.0000 C   0  0  0  0  0  0  0  0  0  0  0  0
    1.4289    4.9500    0.0000 N   0  0  0  0  0  0  0  0  0  0  0  0
    1.4289    5.7750    0.0000 C   0  0  0  0  0  0  0  0  0  0  0  0
    2.1434    4.5375    0.0000 C   0  0  0  0  0  0  0  0  0  0  0  0
    2.8579    4.9500    0.0000 O   0  0  0  0  0  0  0  0  0  0  0  0
    2.1434    3.7125    0.0000 C   0  0  0  0  0  0  0  0  0  0  0  0
    2.6737    4.3445    0.0000 C   0  0  0  0  0  0  0  0  0  0  0  0
    2.9559    3.8558    0.0000 C   0  0  0  0  0  0  0  0  0  0  0  0
    2.8579    3.3000    0.0000 O   0  0  0  0  0  0  0  0  0  0  0  0
    2.8579    2.4750    0.0000 C   0  0  0  0  0  0  0  0  0  0  0  0
    3.5724    2.0625    0.0000 O   0  0  0  0  0  0  0  0  0  0  0  0
    2.1434    2.0625    0.0000 C   0  0  3  0  0  0  0  0  0  0  0  0
    2.1434    1.2375    0.0000 C   0  0  0  0  0  0  0  0  0  0  0  0
  1  2  1  0  0  0  0
  2  3  1  0  0  0  0
  3  4  1  0  0  0  0
  4  5  1  0  0  0  0
  5  6  1  0  0  0  0
  6  7  1  0  0  0  0
  7  8  1  0  0  0  0
  8  9  1  0  0  0  0
  8 33  1  0  0  0  0
  9 10  1  0  0  0  0
 10 11  2  0  0  0  0
 10 12  1  0  0  0  0
 12 13  1  0  0  0  0
 13 14  1  0  0  0  0
 13 15  1  0  0  0  0
 15 16  1  0  0  0  0
 15 23  1  0  0  0  0
 16 17  1  0  0  0  0
 17 18  2  0  0  0  0
 17 22  1  0  0  0  0
 18 19  1  0  0  0  0
 19 20  2  0  0  0  0
 20 21  1  0  0  0  0
 21 22  2  0  0  0  0
 23 24  1  0  0  0  0
 23 25  1  0  0  0  0
 25 26  2  0  0  0  0
 25 27  1  0  0  0  0
 27 28  1  0  0  0  0
 27 29  1  0  0  0  0
 27 30  1  0  0  0  0
 30 31  1  0  0  0  0
 31 32  2  0  0  0  0
 31 33  1  0  0  0  0
 33 34  1  0  0  0  0
M  END
$$$$

 OpenBabel12191814062D

 33 34  0  0  0  0  0  0  0  0999 V2000
   -2.8579    1.6500    0.0000 C   0  0  0  0  0  0  0  0  0  0  0  0
   -2.1434    1.2375    0.0000 C   0  0  0  0  0  0  0  0  0  0  0  0
   -1.4289    1.6500    0.0000 C   0  0  0  0  0  0  0  0  0  0  0  0
   -0.7145    1.2375    0.0000 C   0  0  0  0  0  0  0  0  0  0  0  0
   -0.0000    1.6500    0.0000 C   0  0  0  0  0  0  0  0  0  0  0  0
    0.7145    1.2375    0.0000 C   0  0  0  0  0  0  0  0  0  0  0  0
    1.4289    1.6500    0.0000 C   0  0  0  0  0  0  0  0  0  0  0  0
    1.4289    2.4750    0.0000 C   0  0  3  0  0  0  0  0  0  0  0  0
    0.7145    2.0625    0.0000 O   0  0  0  0  0  0  0  0  0  0  0  0
    0.0000    2.4750    0.0000 C   0  0  0  0  0  0  0  0  0  0  0  0
   -0.7145    2.0625    0.0000 O   0  0  0  0  0  0  0  0  0  0  0  0
   -0.0000    3.3000    0.0000 C   0  0  0  0  0  0  0  0  0  0  0  0
    0.7145    3.7125    0.0000 C   0  0  3  0  0  0  0  0  0  0  0  0
    1.4289    3.3000    0.0000 O   0  0  0  0  0  0  0  0  0  0  0  0
    0.7145    4.5375    0.0000 C   0  0  3  0  0  0  0  0  0  0  0  0
   -0.0000    4.9500    0.0000 C   0  0  0  0  0  0  0  0  0  0  0  0
   -0.0000    5.7750    0.0000 C   0  0  0  0  0  0  0  0  0  0  0  0
   -0.7145    6.1875    0.0000 C   0  0  0  0  0  0  0  0  0  0  0  0
   -0.7145    7.0125    0.0000 C   0  0  0  0  0  0  0  0  0  0  0  0
   -0.0000    7.4250    0.0000 C   0  0  0  0  0  0  0  0  0  0  0  0
    0.7145    7.0125    0.0000 C   0  0  0  0  0  0  0  0  0  0  0  0
    0.7145    6.1875    0.0000 C   0  0  0  0  0  0  0  0  0  0  0  0
    1.4289    4.9500    0.0000 N   0  0  0  0  0  0  0  0  0  0  0  0
    1.4289    5.7750    0.0000 C   0  0  0  0  0  0  0  0  0  0  0  0
    2.1434    4.5375    0.0000 C   0  0  0  0  0  0  0  0  0  0  0  0
    2.8579    4.9500    0.0000 O   0  0  0  0  0  0  0  0  0  0  0  0
    2.1434    3.7125    0.0000 C   0  0  3  0  0  0  0  0  0  0  0  0
    1.8079    2.9588    0.0000 C   0  0  0  0  0  0  0  0  0  0  0  0
    2.8579    3.3000    0.0000 O   0  0  0  0  0  0  0  0  0  0  0  0
    2.8579    2.4750    0.0000 C   0  0  0  0  0  0  0  0  0  0  0  0
    3.5724    2.0625    0.0000 O   0  0  0  0  0  0  0  0  0  0  0  0
    2.1434    2.0625    0.0000 C   0  0  3  0  0  0  0  0  0  0  0  0
    2.1434    1.2375    0.0000 C   0  0  0  0  0  0  0  0  0  0  0  0
  1  2  1  0  0  0  0
  2  3  1  0  0  0  0
  3  4  1  0  0  0  0
  4  5  1  0  0  0  0
  5  6  1  0  0  0  0
  6  7  1  0  0  0  0
  7  8  1  0  0  0  0
  8  9  1  0  0  0  0
  8 32  1  0  0  0  0
  9 10  1  0  0  0  0
 10 11  2  0  0  0  0
 10 12  1  0  0  0  0
 12 13  1  0  0  0  0
 13 14  1  0  0  0  0
 13 15  1  0  0  0  0
 15 16  1  0  0  0  0
 15 23  1  0  0  0  0
 16 17  1  0  0  0  0
 17 18  2  0  0  0  0
 17 22  1  0  0  0  0
 18 19  1  0  0  0  0
 19 20  2  0  0  0  0
 20 21  1  0  0  0  0
 21 22  2  0  0  0  0
 23 24  1  0  0  0  0
 23 25  1  0  0  0  0
 25 26  2  0  0  0  0
 25 27  1  0  0  0  0
 27 28  1  0  0  0  0
 27 29  1  0  0  0  0
 29 30  1  0  0  0  0
 30 31  2  0  0  0  0
 30 32  1  0  0  0  0
 32 33  1  0  0  0  0
M  END
$$$$

 OpenBabel12191814062D

 35 36  0  0  0  0  0  0  0  0999 V2000
   -2.8579    1.6500    0.0000 C   0  0  0  0  0  0  0  0  0  0  0  0
   -2.1434    1.2375    0.0000 C   0  0  0  0  0  0  0  0  0  0  0  0
   -1.4289    1.6500    0.0000 C   0  0  0  0  0  0  0  0  0  0  0  0
   -0.7145    1.2375    0.0000 C   0  0  0  0  0  0  0  0  0  0  0  0
   -0.0000    1.6500    0.0000 C   0  0  0  0  0  0  0  0  0  0  0  0
    0.7145    1.2375    0.0000 C   0  0  0  0  0  0  0  0  0  0  0  0
    1.4289    1.6500    0.0000 C   0  0  0  0  0  0  0  0  0  0  0  0
    1.4289    2.4750    0.0000 C   0  0  3  0  0  0  0  0  0  0  0  0
    0.7145    2.0625    0.0000 O   0  0  0  0  0  0  0  0  0  0  0  0
    0.0000    2.4750    0.0000 C   0  0  0  0  0  0  0  0  0  0  0  0
   -0.7145    2.0625    0.0000 O   0  0  0  0  0  0  0  0  0  0  0  0
   -0.0000    3.3000    0.0000 C   0  0  0  0  0  0  0  0  0  0  0  0
    0.7145    3.7125    0.0000 C   0  0  3  0  0  0  0  0  0  0  0  0
    1.4289    3.3000    0.0000 O   0  0  0  0  0  0  0  0  0  0  0  0
    0.7145    4.5375    0.0000 C   0  0  3  0  0  0  0  0  0  0  0  0
   -0.0000    4.9500    0.0000 C   0  0  0  0  0  0  0  0  0  0  0  0
   -0.0000    5.7750    0.0000 C   0  0  0  0  0  0  0  0  0  0  0  0
   -0.7145    6.1875    0.0000 C   0  0  0  0  0  0  0  0  0  0  0  0
   -0.7145    7.0125    0.0000 C   0  0  0  0  0  0  0  0  0  0  0  0
   -0.0000    7.4250    0.0000 C   0  0  0  0  0  0  0  0  0  0  0  0
    0.7145    7.0125    0.0000 C   0  0  0  0  0  0  0  0  0  0  0  0
    0.7145    6.1875    0.0000 C   0  0  0  0  0  0  0  0  0  0  0  0
    1.4289    4.9500    0.0000 N   0  0  0  0  0  0  0  0  0  0  0  0
    1.4289    5.7750    0.0000 C   0  0  0  0  0  0  0  0  0  0  0  0
    2.1434    4.5375    0.0000 C   0  0  0  0  0  0  0  0  0  0  0  0
    2.8579    4.9500    0.0000 O   0  0  0  0  0  0  0  0  0  0  0  0
    2.1434    3.7125    0.0000 C   0  0  3  0  0  0  0  0  0  0  0  0
    2.8579    3.3000    0.0000 O   0  0  0  0  0  0  0  0  0  0  0  0
    2.8579    2.4750    0.0000 C   0  0  0  0  0  0  0  0  0  0  0  0
    3.5724    2.0625    0.0000 O   0  0  0  0  0  0  0  0  0  0  0  0
    2.1434    2.0625    0.0000 C   0  0  3  0  0  0  0  0  0  0  0  0
    2.1434    1.2375    0.0000 C   0  0  0  0  0  0  0  0  0  0  0  0
    2.8579    4.1250    0.0000 C   0  0  0  0  0  0  0  0  0  0  0  0
    3.5724    3.7125    0.0000 C   0  0  0  0  0  0  0  0  0  0  0  0
    3.3428    4.7924    0.0000 C   0  0  0  0  0  0  0  0  0  0  0  0
  1  2  1  0  0  0  0
  2  3  1  0  0  0  0
  3  4  1  0  0  0  0
  4  5  1  0  0  0  0
  5  6  1  0  0  0  0
  6  7  1  0  0  0  0
  7  8  1  0  0  0  0
  8  9  1  0  0  0  0
  8 31  1  0  0  0  0
  9 10  1  0  0  0  0
 10 11  2  0  0  0  0
 10 12  1  0  0  0  0
 12 13  1  0  0  0  0
 13 14  1  0  0  0  0
 13 15  1  0  0  0  0
 15 16  1  0  0  0  0
 15 23  1  0  0  0  0
 16 17  1  0  0  0  0
 17 18  2  0  0  0  0
 17 22  1  0  0  0  0
 18 19  1  0  0  0  0
 19 20  2  0  0  0  0
 20 21  1  0  0  0  0
 21 22  2  0  0  0  0
 23 24  1  0  0  0  0
 23 25  1  0  0  0  0
 25 26  2  0  0  0  0
 25 27  1  0  0  0  0
 27 28  1  0  0  0  0
 27 33  1  0  0  0  0
 28 29  1  0  0  0  0
 29 30  2  0  0  0  0
 29 31  1  0  0  0  0
 31 32  1  0  0  0  0
 33 34  1  0  0  0  0
 33 35  1  0  0  0  0
M  END
$$$$

 OpenBabel12191814062D

 32 33  0  0  0  0  0  0  0  0999 V2000
   -2.8579    1.6500    0.0000 C   0  0  0  0  0  0  0  0  0  0  0  0
   -2.1434    1.2375    0.0000 C   0  0  0  0  0  0  0  0  0  0  0  0
   -1.4289    1.6500    0.0000 C   0  0  0  0  0  0  0  0  0  0  0  0
   -0.7145    1.2375    0.0000 C   0  0  0  0  0  0  0  0  0  0  0  0
   -0.0000    1.6500    0.0000 C   0  0  0  0  0  0  0  0  0  0  0  0
    0.7145    1.2375    0.0000 C   0  0  0  0  0  0  0  0  0  0  0  0
    1.4289    1.6500    0.0000 C   0  0  0  0  0  0  0  0  0  0  0  0
    1.4289    2.4750    0.0000 C   0  0  3  0  0  0  0  0  0  0  0  0
    0.7145    2.0625    0.0000 O   0  0  0  0  0  0  0  0  0  0  0  0
    0.0000    2.4750    0.0000 C   0  0  0  0  0  0  0  0  0  0  0  0
   -0.7145    2.0625    0.0000 O   0  0  0  0  0  0  0  0  0  0  0  0
   -0.0000    3.3000    0.0000 C   0  0  0  0  0  0  0  0  0  0  0  0
    0.7145    3.7125    0.0000 C   0  0  3  0  0  0  0  0  0  0  0  0
    1.4289    3.3000    0.0000 O   0  0  0  0  0  0  0  0  0  0  0  0
    0.7145    4.5375    0.0000 C   0  0  3  0  0  0  0  0  0  0  0  0
   -0.0000    4.9500    0.0000 C   0  0  0  0  0  0  0  0  0  0  0  0
   -0.0000    5.7750    0.0000 C   0  0  0  0  0  0  0  0  0  0  0  0
   -0.7145    6.1875    0.0000 C   0  0  0  0  0  0  0  0  0  0  0  0
   -0.7145    7.0125    0.0000 C   0  0  0  0  0  0  0  0  0  0  0  0
   -0.0000    7.4250    0.0000 C   0  0  0  0  0  0  0  0  0  0  0  0
    0.7145    7.0125    0.0000 C   0  0  0  0  0  0  0  0  0  0  0  0
    0.7145    6.1875    0.0000 C   0  0  0  0  0  0  0  0  0  0  0  0
    1.4289    4.9500    0.0000 N   0  0  0  0  0  0  0  0  0  0  0  0
    1.4289    5.7750    0.0000 C   0  0  0  0  0  0  0  0  0  0  0  0
    2.1434    4.5375    0.0000 C   0  0  0  0  0  0  0  0  0  0  0  0
    2.8579    4.9500    0.0000 O   0  0  0  0  0  0  0  0  0  0  0  0
    2.1434    3.7125    0.0000 C   0  0  0  0  0  0  0  0  0  0  0  0
    2.8579    3.3000    0.0000 O   0  0  0  0  0  0  0  0  0  0  0  0
    2.8579    2.4750    0.0000 C   0  0  0  0  0  0  0  0  0  0  0  0
    3.5724    2.0625    0.0000 O   0  0  0  0  0  0  0  0  0  0  0  0
    2.1434    2.0625    0.0000 C   0  0  3  0  0  0  0  0  0  0  0  0
    2.1434    1.2375    0.0000 C   0  0  0  0  0  0  0  0  0  0  0  0
  1  2  1  0  0  0  0
  2  3  1  0  0  0  0
  3  4  1  0  0  0  0
  4  5  1  0  0  0  0
  5  6  1  0  0  0  0
  6  7  1  0  0  0  0
  7  8  1  0  0  0  0
  8  9  1  0  0  0  0
  8 31  1  0  0  0  0
  9 10  1  0  0  0  0
 10 11  2  0  0  0  0
 10 12  1  0  0  0  0
 12 13  1  0  0  0  0
 13 14  1  0  0  0  0
 13 15  1  0  0  0  0
 15 16  1  0  0  0  0
 15 23  1  0  0  0  0
 16 17  1  0  0  0  0
 17 18  2  0  0  0  0
 17 22  1  0  0  0  0
 18 19  1  0  0  0  0
 19 20  2  0  0  0  0
 20 21  1  0  0  0  0
 21 22  2  0  0  0  0
 23 24  1  0  0  0  0
 23 25  1  0  0  0  0
 25 26  2  0  0  0  0
 25 27  1  0  0  0  0
 27 28  1  0  0  0  0
 28 29  1  0  0  0  0
 29 30  2  0  0  0  0
 29 31  1  0  0  0  0
 31 32  1  0  0  0  0
M  END
$$$$

 OpenBabel12191814062D

 37 38  0  0  0  0  0  0  0  0999 V2000
   -2.8579    1.6500    0.0000 C   0  0  0  0  0  0  0  0  0  0  0  0
   -2.1434    1.2375    0.0000 C   0  0  0  0  0  0  0  0  0  0  0  0
   -1.4289    1.6500    0.0000 C   0  0  0  0  0  0  0  0  0  0  0  0
   -0.7145    1.2375    0.0000 C   0  0  0  0  0  0  0  0  0  0  0  0
   -0.0000    1.6500    0.0000 C   0  0  0  0  0  0  0  0  0  0  0  0
    0.7145    1.2375    0.0000 C   0  0  0  0  0  0  0  0  0  0  0  0
    1.4289    1.6500    0.0000 C   0  0  0  0  0  0  0  0  0  0  0  0
    1.4289    2.4750    0.0000 C   0  0  3  0  0  0  0  0  0  0  0  0
    0.7145    2.0625    0.0000 O   0  0  0  0  0  0  0  0  0  0  0  0
    0.0000    2.4750    0.0000 C   0  0  0  0  0  0  0  0  0  0  0  0
   -0.7145    2.0625    0.0000 O   0  0  0  0  0  0  0  0  0  0  0  0
   -0.0000    3.3000    0.0000 C   0  0  0  0  0  0  0  0  0  0  0  0
    0.7145    3.7125    0.0000 C   0  0  3  0  0  0  0  0  0  0  0  0
   -0.0000    4.1250    0.0000 O   0  0  0  0  0  0  0  0  0  0  0  0
   -0.7145    3.7125    0.0000 C   0  0  0  0  0  0  0  0  0  0  0  0
   -0.7145    2.8875    0.0000 O   0  0  0  0  0  0  0  0  0  0  0  0
   -1.4289    2.4750    0.0000 C   0  0  0  0  0  0  0  0  0  0  0  0
    0.7145    4.5375    0.0000 C   0  0  3  0  0  0  0  0  0  0  0  0
   -0.0000    4.9500    0.0000 C   0  0  0  0  0  0  0  0  0  0  0  0
   -0.0000    5.7750    0.0000 C   0  0  0  0  0  0  0  0  0  0  0  0
   -0.7145    6.1875    0.0000 C   0  0  0  0  0  0  0  0  0  0  0  0
   -0.7145    7.0125    0.0000 C   0  0  0  0  0  0  0  0  0  0  0  0
   -0.0000    7.4250    0.0000 C   0  0  0  0  0  0  0  0  0  0  0  0
    0.7145    7.0125    0.0000 C   0  0  0  0  0  0  0  0  0  0  0  0
    0.7145    6.1875    0.0000 C   0  0  0  0  0  0  0  0  0  0  0  0
    1.4289    4.9500    0.0000 N   0  0  0  0  0  0  0  0  0  0  0  0
    1.4289    5.7750    0.0000 C   0  0  0  0  0  0  0  0  0  0  0  0
    2.1434    4.5375    0.0000 C   0  0  0  0  0  0  0  0  0  0  0  0
    2.8579    4.9500    0.0000 O   0  0  0  0  0  0  0  0  0  0  0  0
    2.1434    3.7125    0.0000 C   0  0  0  0  0  0  0  0  0  0  0  0
    2.6737    4.3445    0.0000 C   0  0  0  0  0  0  0  0  0  0  0  0
    2.9559    3.8558    0.0000 C   0  0  0  0  0  0  0  0  0  0  0  0
    2.8579    3.3000    0.0000 O   0  0  0  0  0  0  0  0  0  0  0  0
    2.8579    2.4750    0.0000 C   0  0  0  0  0  0  0  0  0  0  0  0
    3.5724    2.0625    0.0000 O   0  0  0  0  0  0  0  0  0  0  0  0
    2.1434    2.0625    0.0000 C   0  0  3  0  0  0  0  0  0  0  0  0
    2.1434    1.2375    0.0000 C   0  0  0  0  0  0  0  0  0  0  0  0
  1  2  1  0  0  0  0
  2  3  1  0  0  0  0
  3  4  1  0  0  0  0
  4  5  1  0  0  0  0
  5  6  1  0  0  0  0
  6  7  1  0  0  0  0
  7  8  1  0  0  0  0
  8  9  1  0  0  0  0
  8 36  1  0  0  0  0
  9 10  1  0  0  0  0
 10 11  2  0  0  0  0
 10 12  1  0  0  0  0
 12 13  1  0  0  0  0
 13 14  1  0  0  0  0
 13 18  1  0  0  0  0
 14 15  1  0  0  0  0
 15 16  1  0  0  0  0
 16 17  1  0  0  0  0
 18 19  1  0  0  0  0
 18 26  1  0  0  0  0
 19 20  1  0  0  0  0
 20 21  2  0  0  0  0
 20 25  1  0  0  0  0
 21 22  1  0  0  0  0
 22 23  2  0  0  0  0
 23 24  1  0  0  0  0
 24 25  2  0  0  0  0
 26 27  1  0  0  0  0
 26 28  1  0  0  0  0
 28 29  2  0  0  0  0
 28 30  1  0  0  0  0
 30 31  1  0  0  0  0
 30 32  1  0  0  0  0
 30 33  1  0  0  0  0
 33 34  1  0  0  0  0
 34 35  2  0  0  0  0
 34 36  1  0  0  0  0
 36 37  1  0  0  0  0
M  END
$$$$

 OpenBabel12191814062D

 36 37  0  0  0  0  0  0  0  0999 V2000
   -2.8579    1.6500    0.0000 C   0  0  0  0  0  0  0  0  0  0  0  0
   -2.1434    1.2375    0.0000 C   0  0  0  0  0  0  0  0  0  0  0  0
   -1.4289    1.6500    0.0000 C   0  0  0  0  0  0  0  0  0  0  0  0
   -0.7145    1.2375    0.0000 C   0  0  0  0  0  0  0  0  0  0  0  0
   -0.0000    1.6500    0.0000 C   0  0  0  0  0  0  0  0  0  0  0  0
    0.7145    1.2375    0.0000 C   0  0  0  0  0  0  0  0  0  0  0  0
    1.4289    1.6500    0.0000 C   0  0  0  0  0  0  0  0  0  0  0  0
    1.4289    2.4750    0.0000 C   0  0  3  0  0  0  0  0  0  0  0  0
    0.7145    2.0625    0.0000 O   0  0  0  0  0  0  0  0  0  0  0  0
    0.0000    2.4750    0.0000 C   0  0  0  0  0  0  0  0  0  0  0  0
   -0.7145    2.0625    0.0000 O   0  0  0  0  0  0  0  0  0  0  0  0
   -0.0000    3.3000    0.0000 C   0  0  0  0  0  0  0  0  0  0  0  0
    0.7145    3.7125    0.0000 C   0  0  3  0  0  0  0  0  0  0  0  0
   -0.0000    4.1250    0.0000 O   0  0  0  0  0  0  0  0  0  0  0  0
   -0.7145    3.7125    0.0000 C   0  0  0  0  0  0  0  0  0  0  0  0
   -0.7145    2.8875    0.0000 O   0  0  0  0  0  0  0  0  0  0  0  0
   -1.4289    2.4750    0.0000 C   0  0  0  0  0  0  0  0  0  0  0  0
    0.7145    4.5375    0.0000 C   0  0  3  0  0  0  0  0  0  0  0  0
   -0.0000    4.9500    0.0000 C   0  0  0  0  0  0  0  0  0  0  0  0
   -0.0000    5.7750    0.0000 C   0  0  0  0  0  0  0  0  0  0  0  0
   -0.7145    6.1875    0.0000 C   0  0  0  0  0  0  0  0  0  0  0  0
   -0.7145    7.0125    0.0000 C   0  0  0  0  0  0  0  0  0  0  0  0
   -0.0000    7.4250    0.0000 C   0  0  0  0  0  0  0  0  0  0  0  0
    0.7145    7.0125    0.0000 C   0  0  0  0  0  0  0  0  0  0  0  0
    0.7145    6.1875    0.0000 C   0  0  0  0  0  0  0  0  0  0  0  0
    1.4289    4.9500    0.0000 N   0  0  0  0  0  0  0  0  0  0  0  0
    1.4289    5.7750    0.0000 C   0  0  0  0  0  0  0  0  0  0  0  0
    2.1434    4.5375    0.0000 C   0  0  0  0  0  0  0  0  0  0  0  0
    2.8579    4.9500    0.0000 O   0  0  0  0  0  0  0  0  0  0  0  0
    2.1434    3.7125    0.0000 C   0  0  3  0  0  0  0  0  0  0  0  0
    1.4289    3.3000    0.0000 C   0  0  0  0  0  0  0  0  0  0  0  0
    2.8579    3.3000    0.0000 O   0  0  0  0  0  0  0  0  0  0  0  0
    2.8579    2.4750    0.0000 C   0  0  0  0  0  0  0  0  0  0  0  0
    3.5724    2.0625    0.0000 O   0  0  0  0  0  0  0  0  0  0  0  0
    2.1434    2.0625    0.0000 C   0  0  3  0  0  0  0  0  0  0  0  0
    2.1434    1.2375    0.0000 C   0  0  0  0  0  0  0  0  0  0  0  0
  1  2  1  0  0  0  0
  2  3  1  0  0  0  0
  3  4  1  0  0  0  0
  4  5  1  0  0  0  0
  5  6  1  0  0  0  0
  6  7  1  0  0  0  0
  7  8  1  0  0  0  0
  8  9  1  0  0  0  0
  8 35  1  0  0  0  0
  9 10  1  0  0  0  0
 10 11  2  0  0  0  0
 10 12  1  0  0  0  0
 12 13  1  0  0  0  0
 13 14  1  0  0  0  0
 13 18  1  0  0  0  0
 14 15  1  0  0  0  0
 15 16  1  0  0  0  0
 16 17  1  0  0  0  0
 18 19  1  0  0  0  0
 18 26  1  0  0  0  0
 19 20  1  0  0  0  0
 20 21  2  0  0  0  0
 20 25  1  0  0  0  0
 21 22  1  0  0  0  0
 22 23  2  0  0  0  0
 23 24  1  0  0  0  0
 24 25  2  0  0  0  0
 26 27  1  0  0  0  0
 26 28  1  0  0  0  0
 28 29  2  0  0  0  0
 28 30  1  0  0  0  0
 30 31  1  0  0  0  0
 30 32  1  0  0  0  0
 32 33  1  0  0  0  0
 33 34  2  0  0  0  0
 33 35  1  0  0  0  0
 35 36  1  0  0  0  0
M  END
$$$$

 OpenBabel12191814062D

 38 39  0  0  0  0  0  0  0  0999 V2000
   -2.8579    1.6500    0.0000 C   0  0  0  0  0  0  0  0  0  0  0  0
   -2.1434    1.2375    0.0000 C   0  0  0  0  0  0  0  0  0  0  0  0
   -1.4289    1.6500    0.0000 C   0  0  0  0  0  0  0  0  0  0  0  0
   -0.7145    1.2375    0.0000 C   0  0  0  0  0  0  0  0  0  0  0  0
   -0.0000    1.6500    0.0000 C   0  0  0  0  0  0  0  0  0  0  0  0
    0.7145    1.2375    0.0000 C   0  0  0  0  0  0  0  0  0  0  0  0
    1.4289    1.6500    0.0000 C   0  0  0  0  0  0  0  0  0  0  0  0
    1.4289    2.4750    0.0000 C   0  0  3  0  0  0  0  0  0  0  0  0
    0.7145    2.0625    0.0000 O   0  0  0  0  0  0  0  0  0  0  0  0
    0.0000    2.4750    0.0000 C   0  0  0  0  0  0  0  0  0  0  0  0
   -0.7145    2.0625    0.0000 O   0  0  0  0  0  0  0  0  0  0  0  0
   -0.0000    3.3000    0.0000 C   0  0  0  0  0  0  0  0  0  0  0  0
    0.7145    3.7125    0.0000 C   0  0  3  0  0  0  0  0  0  0  0  0
   -0.0000    4.1250    0.0000 O   0  0  0  0  0  0  0  0  0  0  0  0
   -0.7145    3.7125    0.0000 C   0  0  0  0  0  0  0  0  0  0  0  0
   -0.7145    2.8875    0.0000 O   0  0  0  0  0  0  0  0  0  0  0  0
   -1.4289    2.4750    0.0000 C   0  0  0  0  0  0  0  0  0  0  0  0
    0.7145    4.5375    0.0000 C   0  0  3  0  0  0  0  0  0  0  0  0
   -0.0000    4.9500    0.0000 C   0  0  0  0  0  0  0  0  0  0  0  0
   -0.0000    5.7750    0.0000 C   0  0  0  0  0  0  0  0  0  0  0  0
   -0.7145    6.1875    0.0000 C   0  0  0  0  0  0  0  0  0  0  0  0
   -0.7145    7.0125    0.0000 C   0  0  0  0  0  0  0  0  0  0  0  0
   -0.0000    7.4250    0.0000 C   0  0  0  0  0  0  0  0  0  0  0  0
    0.7145    7.0125    0.0000 C   0  0  0  0  0  0  0  0  0  0  0  0
    0.7145    6.1875    0.0000 C   0  0  0  0  0  0  0  0  0  0  0  0
    1.4289    4.9500    0.0000 N   0  0  0  0  0  0  0  0  0  0  0  0
    1.4289    5.7750    0.0000 C   0  0  0  0  0  0  0  0  0  0  0  0
    2.1434    4.5375    0.0000 C   0  0  0  0  0  0  0  0  0  0  0  0
    2.8579    4.9500    0.0000 O   0  0  0  0  0  0  0  0  0  0  0  0
    2.1434    3.7125    0.0000 C   0  0  3  0  0  0  0  0  0  0  0  0
    2.8579    3.3000    0.0000 O   0  0  0  0  0  0  0  0  0  0  0  0
    2.8579    2.4750    0.0000 C   0  0  0  0  0  0  0  0  0  0  0  0
    3.5724    2.0625    0.0000 O   0  0  0  0  0  0  0  0  0  0  0  0
    2.1434    2.0625    0.0000 C   0  0  3  0  0  0  0  0  0  0  0  0
    2.1434    1.2375    0.0000 C   0  0  0  0  0  0  0  0  0  0  0  0
    2.8579    4.1250    0.0000 C   0  0  0  0  0  0  0  0  0  0  0  0
    3.5724    3.7125    0.0000 C   0  0  0  0  0  0  0  0  0  0  0  0
    3.3428    4.7924    0.0000 C   0  0  0  0  0  0  0  0  0  0  0  0
  1  2  1  0  0  0  0
  2  3  1  0  0  0  0
  3  4  1  0  0  0  0
  4  5  1  0  0  0  0
  5  6  1  0  0  0  0
  6  7  1  0  0  0  0
  7  8  1  0  0  0  0
  8  9  1  0  0  0  0
  8 34  1  0  0  0  0
  9 10  1  0  0  0  0
 10 11  2  0  0  0  0
 10 12  1  0  0  0  0
 12 13  1  0  0  0  0
 13 14  1  0  0  0  0
 13 18  1  0  0  0  0
 14 15  1  0  0  0  0
 15 16  1  0  0  0  0
 16 17  1  0  0  0  0
 18 19  1  0  0  0  0
 18 26  1  0  0  0  0
 19 20  1  0  0  0  0
 20 21  2  0  0  0  0
 20 25  1  0  0  0  0
 21 22  1  0  0  0  0
 22 23  2  0  0  0  0
 23 24  1  0  0  0  0
 24 25  2  0  0  0  0
 26 27  1  0  0  0  0
 26 28  1  0  0  0  0
 28 29  2  0  0  0  0
 28 30  1  0  0  0  0
 30 31  1  0  0  0  0
 30 36  1  0  0  0  0
 31 32  1  0  0  0  0
 32 33  2  0  0  0  0
 32 34  1  0  0  0  0
 34 35  1  0  0  0  0
 36 37  1  0  0  0  0
 36 38  1  0  0  0  0
M  END
$$$$

 OpenBabel12191814062D

 35 36  0  0  0  0  0  0  0  0999 V2000
   -2.8579    1.6500    0.0000 C   0  0  0  0  0  0  0  0  0  0  0  0
   -2.1434    1.2375    0.0000 C   0  0  0  0  0  0  0  0  0  0  0  0
   -1.4289    1.6500    0.0000 C   0  0  0  0  0  0  0  0  0  0  0  0
   -0.7145    1.2375    0.0000 C   0  0  0  0  0  0  0  0  0  0  0  0
   -0.0000    1.6500    0.0000 C   0  0  0  0  0  0  0  0  0  0  0  0
    0.7145    1.2375    0.0000 C   0  0  0  0  0  0  0  0  0  0  0  0
    1.4289    1.6500    0.0000 C   0  0  0  0  0  0  0  0  0  0  0  0
    1.4289    2.4750    0.0000 C   0  0  3  0  0  0  0  0  0  0  0  0
    0.7145    2.0625    0.0000 O   0  0  0  0  0  0  0  0  0  0  0  0
    0.0000    2.4750    0.0000 C   0  0  0  0  0  0  0  0  0  0  0  0
   -0.7145    2.0625    0.0000 O   0  0  0  0  0  0  0  0  0  0  0  0
   -0.0000    3.3000    0.0000 C   0  0  0  0  0  0  0  0  0  0  0  0
    0.7145    3.7125    0.0000 C   0  0  3  0  0  0  0  0  0  0  0  0
   -0.0000    4.1250    0.0000 O   0  0  0  0  0  0  0  0  0  0  0  0
   -0.7145    3.7125    0.0000 C   0  0  0  0  0  0  0  0  0  0  0  0
   -0.7145    2.8875    0.0000 O   0  0  0  0  0  0  0  0  0  0  0  0
   -1.4289    2.4750    0.0000 C   0  0  0  0  0  0  0  0  0  0  0  0
    0.7145    4.5375    0.0000 C   0  0  3  0  0  0  0  0  0  0  0  0
   -0.0000    4.9500    0.0000 C   0  0  0  0  0  0  0  0  0  0  0  0
   -0.0000    5.7750    0.0000 C   0  0  0  0  0  0  0  0  0  0  0  0
   -0.7145    6.1875    0.0000 C   0  0  0  0  0  0  0  0  0  0  0  0
   -0.7145    7.0125    0.0000 C   0  0  0  0  0  0  0  0  0  0  0  0
   -0.0000    7.4250    0.0000 C   0  0  0  0  0  0  0  0  0  0  0  0
    0.7145    7.0125    0.0000 C   0  0  0  0  0  0  0  0  0  0  0  0
    0.7145    6.1875    0.0000 C   0  0  0  0  0  0  0  0  0  0  0  0
    1.4289    4.9500    0.0000 N   0  0  0  0  0  0  0  0  0  0  0  0
    1.4289    5.7750    0.0000 C   0  0  0  0  0  0  0  0  0  0  0  0
    2.1434    4.5375    0.0000 C   0  0  0  0  0  0  0  0  0  0  0  0
    2.8579    4.9500    0.0000 O   0  0  0  0  0  0  0  0  0  0  0  0
    2.1434    3.7125    0.0000 C   0  0  0  0  0  0  0  0  0  0  0  0
    2.8579    3.3000    0.0000 O   0  0  0  0  0  0  0  0  0  0  0  0
    2.8579    2.4750    0.0000 C   0  0  0  0  0  0  0  0  0  0  0  0
    3.5724    2.0625    0.0000 O   0  0  0  0  0  0  0  0  0  0  0  0
    2.1434    2.0625    0.0000 C   0  0  3  0  0  0  0  0  0  0  0  0
    2.1434    1.2375    0.0000 C   0  0  0  0  0  0  0  0  0  0  0  0
  1  2  1  0  0  0  0
  2  3  1  0  0  0  0
  3  4  1  0  0  0  0
  4  5  1  0  0  0  0
  5  6  1  0  0  0  0
  6  7  1  0  0  0  0
  7  8  1  0  0  0  0
  8  9  1  0  0  0  0
  8 34  1  0  0  0  0
  9 10  1  0  0  0  0
 10 11  2  0  0  0  0
 10 12  1  0  0  0  0
 12 13  1  0  0  0  0
 13 14  1  0  0  0  0
 13 18  1  0  0  0  0
 14 15  1  0  0  0  0
 15 16  1  0  0  0  0
 16 17  1  0  0  0  0
 18 19  1  0  0  0  0
 18 26  1  0  0  0  0
 19 20  1  0  0  0  0
 20 21  2  0  0  0  0
 20 25  1  0  0  0  0
 21 22  1  0  0  0  0
 22 23  2  0  0  0  0
 23 24  1  0  0  0  0
 24 25  2  0  0  0  0
 26 27  1  0  0  0  0
 26 28  1  0  0  0  0
 28 29  2  0  0  0  0
 28 30  1  0  0  0  0
 30 31  1  0  0  0  0
 31 32  1  0  0  0  0
 32 33  2  0  0  0  0
 32 34  1  0  0  0  0
 34 35  1  0  0  0  0
M  END
$$$$

 OpenBabel12191814062D

 34 35  0  0  0  0  0  0  0  0999 V2000
   -2.8579    1.6500    0.0000 C   0  0  0  0  0  0  0  0  0  0  0  0
   -2.1434    1.2375    0.0000 C   0  0  0  0  0  0  0  0  0  0  0  0
   -1.4289    1.6500    0.0000 C   0  0  0  0  0  0  0  0  0  0  0  0
   -0.7145    1.2375    0.0000 C   0  0  0  0  0  0  0  0  0  0  0  0
   -0.0000    1.6500    0.0000 C   0  0  0  0  0  0  0  0  0  0  0  0
    0.7145    1.2375    0.0000 C   0  0  0  0  0  0  0  0  0  0  0  0
    1.4289    1.6500    0.0000 C   0  0  0  0  0  0  0  0  0  0  0  0
    1.4289    2.4750    0.0000 C   0  0  3  0  0  0  0  0  0  0  0  0
    0.7145    2.0625    0.0000 O   0  0  0  0  0  0  0  0  0  0  0  0
    0.0000    2.4750    0.0000 C   0  0  0  0  0  0  0  0  0  0  0  0
   -0.7145    2.0625    0.0000 O   0  0  0  0  0  0  0  0  0  0  0  0
   -0.0000    3.3000    0.0000 C   0  0  0  0  0  0  0  0  0  0  0  0
    0.7145    3.7125    0.0000 C   0  0  0  0  0  0  0  0  0  0  0  0
    0.7145    4.5375    0.0000 C   0  0  3  0  0  0  0  0  0  0  0  0
   -0.0000    4.9500    0.0000 C   0  0  0  0  0  0  0  0  0  0  0  0
   -0.0000    5.7750    0.0000 C   0  0  0  0  0  0  0  0  0  0  0  0
   -0.7145    6.1875    0.0000 C   0  0  0  0  0  0  0  0  0  0  0  0
   -0.7145    7.0125    0.0000 C   0  0  0  0  0  0  0  0  0  0  0  0
   -0.0000    7.4250    0.0000 C   0  0  0  0  0  0  0  0  0  0  0  0
    0.7145    7.0125    0.0000 C   0  0  0  0  0  0  0  0  0  0  0  0
    0.7145    6.1875    0.0000 C   0  0  0  0  0  0  0  0  0  0  0  0
    1.4289    4.9500    0.0000 N   0  0  0  0  0  0  0  0  0  0  0  0
    1.4289    5.7750    0.0000 C   0  0  0  0  0  0  0  0  0  0  0  0
    2.1434    4.5375    0.0000 C   0  0  0  0  0  0  0  0  0  0  0  0
    2.8579    4.9500    0.0000 O   0  0  0  0  0  0  0  0  0  0  0  0
    2.1434    3.7125    0.0000 C   0  0  3  0  0  0  0  0  0  0  0  0
    2.8579    3.3000    0.0000 O   0  0  0  0  0  0  0  0  0  0  0  0
    2.8579    2.4750    0.0000 C   0  0  0  0  0  0  0  0  0  0  0  0
    3.5724    2.0625    0.0000 O   0  0  0  0  0  0  0  0  0  0  0  0
    2.1434    2.0625    0.0000 C   0  0  3  0  0  0  0  0  0  0  0  0
    2.1434    1.2375    0.0000 C   0  0  0  0  0  0  0  0  0  0  0  0
    2.8579    4.1250    0.0000 C   0  0  0  0  0  0  0  0  0  0  0  0
    3.5724    3.7125    0.0000 C   0  0  0  0  0  0  0  0  0  0  0  0
    3.3428    4.7924    0.0000 C   0  0  0  0  0  0  0  0  0  0  0  0
  1  2  1  0  0  0  0
  2  3  1  0  0  0  0
  3  4  1  0  0  0  0
  4  5  1  0  0  0  0
  5  6  1  0  0  0  0
  6  7  1  0  0  0  0
  7  8  1  0  0  0  0
  8  9  1  0  0  0  0
  8 30  1  0  0  0  0
  9 10  1  0  0  0  0
 10 11  2  0  0  0  0
 10 12  1  0  0  0  0
 12 13  1  0  0  0  0
 13 14  1  0  0  0  0
 14 15  1  0  0  0  0
 14 22  1  0  0  0  0
 15 16  1  0  0  0  0
 16 17  2  0  0  0  0
 16 21  1  0  0  0  0
 17 18  1  0  0  0  0
 18 19  2  0  0  0  0
 19 20  1  0  0  0  0
 20 21  2  0  0  0  0
 22 23  1  0  0  0  0
 22 24  1  0  0  0  0
 24 25  2  0  0  0  0
 24 26  1  0  0  0  0
 26 27  1  0  0  0  0
 26 32  1  0  0  0  0
 27 28  1  0  0  0  0
 28 29  2  0  0  0  0
 28 30  1  0  0  0  0
 30 31  1  0  0  0  0
 32 33  1  0  0  0  0
 32 34  1  0  0  0  0
M  END
$$$$

 OpenBabel12191814062D

 42 43  0  0  0  0  0  0  0  0999 V2000
   -7.0125   -5.2224    0.0000 C   0  0  0  0  0  0  0  0  0  0  0  0
   -6.2980   -4.8099    0.0000 C   0  0  0  0  0  0  0  0  0  0  0  0
   -5.5836   -5.2224    0.0000 C   0  0  0  0  0  0  0  0  0  0  0  0
   -4.8691   -4.8099    0.0000 C   0  0  0  0  0  0  0  0  0  0  0  0
   -4.1546   -5.2224    0.0000 C   0  0  0  0  0  0  0  0  0  0  0  0
   -3.4401   -4.8099    0.0000 C   0  0  0  0  0  0  0  0  0  0  0  0
   -2.7257   -5.2224    0.0000 C   0  0  0  0  0  0  0  0  0  0  0  0
   -2.0112   -4.8099    0.0000 C   0  0  0  0  0  0  0  0  0  0  0  0
   -1.2967   -5.2224    0.0000 C   0  0  0  0  0  0  0  0  0  0  0  0
   -0.5823   -4.8099    0.0000 C   0  0  0  0  0  0  0  0  0  0  0  0
    0.1322   -5.2224    0.0000 C   0  0  0  0  0  0  0  0  0  0  0  0
    0.8467   -4.8099    0.0000 C   0  0  0  0  0  0  0  0  0  0  0  0
    1.5612   -5.2224    0.0000 C   0  0  3  0  0  0  0  0  0  0  0  0
    2.2756   -5.6349    0.0000 C   0  0  0  0  0  0  0  0  0  0  0  0
    2.9901   -5.2224    0.0000 C   0  0  0  0  0  0  0  0  0  0  0  0
    3.7046   -5.6349    0.0000 C   0  0  0  0  0  0  0  0  0  0  0  0
    3.7046   -6.4599    0.0000 N   0  0  0  0  0  0  0  0  0  0  0  0
    4.4190   -6.8724    0.0000 C   0  0  0  0  0  0  0  0  0  0  0  0
    2.9901   -6.8724    0.0000 C   0  0  0  0  0  0  0  0  0  0  0  0
    2.9901   -7.6974    0.0000 C   0  0  0  0  0  0  0  0  0  0  0  0
    2.2756   -8.1099    0.0000 C   0  0  0  0  0  0  0  0  0  0  0  0
    2.2756   -8.9349    0.0000 C   0  0  0  0  0  0  0  0  0  0  0  0
    1.5612   -9.3474    0.0000 C   0  0  0  0  0  0  0  0  0  0  0  0
    0.8467   -8.9349    0.0000 C   0  0  0  0  0  0  0  0  0  0  0  0
    0.1322   -9.3474    0.0000 O   0  0  0  0  0  0  0  0  0  0  0  0
    0.1322  -10.1724    0.0000 C   0  0  0  0  0  0  0  0  0  0  0  0
    0.8467   -8.1099    0.0000 C   0  0  0  0  0  0  0  0  0  0  0  0
    1.5612   -7.6974    0.0000 C   0  0  0  0  0  0  0  0  0  0  0  0
    1.1487   -5.9368    0.0000 C   0  0  0  0  0  0  0  0  0  0  0  0
    0.7362   -6.6513    0.0000 N   0  0  0  0  0  0  0  0  0  0  0  0
    1.9737   -4.5079    0.0000 C   0  0  0  0  0  0  0  0  0  0  0  0
    1.5612   -3.7934    0.0000 C   0  0  0  0  0  0  0  0  0  0  0  0
    1.9737   -3.0789    0.0000 C   0  0  0  0  0  0  0  0  0  0  0  0
    1.5612   -2.3645    0.0000 O   0  0  0  0  0  0  0  0  0  0  0  0
    1.9737   -1.6500    0.0000 C   0  0  0  0  0  0  0  0  0  0  0  0
    2.7987   -3.0789    0.0000 C   0  0  0  0  0  0  0  0  0  0  0  0
    3.2112   -2.3645    0.0000 O   0  0  0  0  0  0  0  0  0  0  0  0
    4.0362   -2.3645    0.0000 C   0  0  0  0  0  0  0  0  0  0  0  0
    3.2112   -3.7934    0.0000 C   0  0  0  0  0  0  0  0  0  0  0  0
    4.0362   -3.7934    0.0000 O   0  0  0  0  0  0  0  0  0  0  0  0
    4.4487   -4.5079    0.0000 C   0  0  0  0  0  0  0  0  0  0  0  0
    2.7987   -4.5079    0.0000 C   0  0  0  0  0  0  0  0  0  0  0  0
  1  2  1  0  0  0  0
  2  3  1  0  0  0  0
  3  4  1  0  0  0  0
  4  5  1  0  0  0  0
  5  6  1  0  0  0  0
  6  7  1  0  0  0  0
  7  8  1  0  0  0  0
  8  9  1  0  0  0  0
  9 10  1  0  0  0  0
 10 11  1  0  0  0  0
 11 12  1  0  0  0  0
 12 13  1  0  0  0  0
 13 14  1  0  0  0  0
 13 29  1  0  0  0  0
 13 31  1  0  0  0  0
 14 15  1  0  0  0  0
 15 16  1  0  0  0  0
 16 17  1  0  0  0  0
 17 18  1  0  0  0  0
 17 19  1  0  0  0  0
 19 20  1  0  0  0  0
 20 21  1  0  0  0  0
 21 22  2  0  0  0  0
 21 28  1  0  0  0  0
 22 23  1  0  0  0  0
 23 24  2  0  0  0  0
 24 25  1  0  0  0  0
 24 27  1  0  0  0  0
 25 26  1  0  0  0  0
 27 28  2  0  0  0  0
 29 30  3  0  0  0  0
 31 32  2  0  0  0  0
 31 42  1  0  0  0  0
 32 33  1  0  0  0  0
 33 34  1  0  0  0  0
 33 36  2  0  0  0  0
 34 35  1  0  0  0  0
 36 37  1  0  0  0  0
 36 39  1  0  0  0  0
 37 38  1  0  0  0  0
 39 40  1  0  0  0  0
 39 42  2  0  0  0  0
 40 41  1  0  0  0  0
M  END
$$$$

 OpenBabel12191814062D

 38 39  0  0  0  0  0  0  0  0999 V2000
   -7.0125    2.7474    0.0000 C   0  0  0  0  0  0  0  0  0  0  0  0
   -6.2980    2.3349    0.0000 C   0  0  0  0  0  0  0  0  0  0  0  0
   -5.5836    2.7474    0.0000 C   0  0  0  0  0  0  0  0  0  0  0  0
   -4.8691    2.3349    0.0000 C   0  0  0  0  0  0  0  0  0  0  0  0
   -4.1546    2.7474    0.0000 C   0  0  0  0  0  0  0  0  0  0  0  0
   -3.4401    2.3349    0.0000 C   0  0  0  0  0  0  0  0  0  0  0  0
   -2.7257    2.7474    0.0000 C   0  0  0  0  0  0  0  0  0  0  0  0
   -2.0112    2.3349    0.0000 C   0  0  0  0  0  0  0  0  0  0  0  0
   -1.2967    2.7474    0.0000 C   0  0  0  0  0  0  0  0  0  0  0  0
   -0.5823    2.3349    0.0000 C   0  0  0  0  0  0  0  0  0  0  0  0
    0.1322    2.7474    0.0000 C   0  0  0  0  0  0  0  0  0  0  0  0
    0.8467    2.3349    0.0000 C   0  0  0  0  0  0  0  0  0  0  0  0
    1.5612    2.7474    0.0000 C   0  0  3  0  0  0  0  0  0  0  0  0
    2.2756    3.1599    0.0000 C   0  0  0  0  0  0  0  0  0  0  0  0
    2.9901    2.7474    0.0000 C   0  0  0  0  0  0  0  0  0  0  0  0
    3.7046    3.1599    0.0000 C   0  0  0  0  0  0  0  0  0  0  0  0
    4.4190    2.7474    0.0000 N   0  0  0  0  0  0  0  0  0  0  0  0
    4.4190    1.9224    0.0000 C   0  0  0  0  0  0  0  0  0  0  0  0
    5.1335    3.1599    0.0000 C   0  0  0  0  0  0  0  0  0  0  0  0
    5.8480    2.7474    0.0000 C   0  0  0  0  0  0  0  0  0  0  0  0
    6.5624    3.1599    0.0000 C   0  0  0  0  0  0  0  0  0  0  0  0
    6.5624    3.9849    0.0000 C   0  0  0  0  0  0  0  0  0  0  0  0
    7.2769    4.3974    0.0000 C   0  0  0  0  0  0  0  0  0  0  0  0
    7.9914    3.9849    0.0000 C   0  0  0  0  0  0  0  0  0  0  0  0
    7.9914    3.1599    0.0000 C   0  0  0  0  0  0  0  0  0  0  0  0
    8.7059    2.7474    0.0000 O   0  0  0  0  0  0  0  0  0  0  0  0
    9.4203    3.1599    0.0000 C   0  0  0  0  0  0  0  0  0  0  0  0
    7.2769    2.7474    0.0000 C   0  0  0  0  0  0  0  0  0  0  0  0
    1.9737    2.0329    0.0000 C   0  0  0  0  0  0  0  0  0  0  0  0
    2.3862    1.3184    0.0000 N   0  0  0  0  0  0  0  0  0  0  0  0
    1.1487    3.4618    0.0000 C   0  0  0  0  0  0  0  0  0  0  0  0
    0.3237    3.4618    0.0000 C   0  0  0  0  0  0  0  0  0  0  0  0
   -0.0888    4.1763    0.0000 C   0  0  0  0  0  0  0  0  0  0  0  0
    0.3237    4.8908    0.0000 C   0  0  0  0  0  0  0  0  0  0  0  0
    1.1487    4.8908    0.0000 C   0  0  0  0  0  0  0  0  0  0  0  0
    1.5612    5.6052    0.0000 O   0  0  0  0  0  0  0  0  0  0  0  0
    2.3862    5.6052    0.0000 C   0  0  0  0  0  0  0  0  0  0  0  0
    1.5612    4.1763    0.0000 C   0  0  0  0  0  0  0  0  0  0  0  0
  1  2  1  0  0  0  0
  2  3  1  0  0  0  0
  3  4  1  0  0  0  0
  4  5  1  0  0  0  0
  5  6  1  0  0  0  0
  6  7  1  0  0  0  0
  7  8  1  0  0  0  0
  8  9  1  0  0  0  0
  9 10  1  0  0  0  0
 10 11  1  0  0  0  0
 11 12  1  0  0  0  0
 12 13  1  0  0  0  0
 13 14  1  0  0  0  0
 13 29  1  0  0  0  0
 13 31  1  0  0  0  0
 14 15  1  0  0  0  0
 15 16  1  0  0  0  0
 16 17  1  0  0  0  0
 17 18  1  0  0  0  0
 17 19  1  0  0  0  0
 19 20  1  0  0  0  0
 20 21  1  0  0  0  0
 21 22  2  0  0  0  0
 21 28  1  0  0  0  0
 22 23  1  0  0  0  0
 23 24  2  0  0  0  0
 24 25  1  0  0  0  0
 25 26  1  0  0  0  0
 25 28  2  0  0  0  0
 26 27  1  0  0  0  0
 29 30  3  0  0  0  0
 31 32  2  0  0  0  0
 31 38  1  0  0  0  0
 32 33  1  0  0  0  0
 33 34  2  0  0  0  0
 34 35  1  0  0  0  0
 35 36  1  0  0  0  0
 35 38  2  0  0  0  0
 36 37  1  0  0  0  0
M  END
$$$$

 OpenBabel12191814062D

 35 35  0  0  0  0  0  0  0  0999 V2000
    9.4875    1.9224    0.0000 C   0  0  0  0  0  0  0  0  0  0  0  0
   10.2020    2.3349    0.0000 C   0  0  0  0  0  0  0  0  0  0  0  0
   10.9164    1.9224    0.0000 C   0  0  0  0  0  0  0  0  0  0  0  0
   11.6309    2.3349    0.0000 C   0  0  0  0  0  0  0  0  0  0  0  0
   12.3454    1.9224    0.0000 C   0  0  0  0  0  0  0  0  0  0  0  0
   13.0599    2.3349    0.0000 C   0  0  0  0  0  0  0  0  0  0  0  0
   13.7743    1.9224    0.0000 C   0  0  0  0  0  0  0  0  0  0  0  0
   14.4888    2.3349    0.0000 C   0  0  0  0  0  0  0  0  0  0  0  0
   15.2033    1.9224    0.0000 C   0  0  0  0  0  0  0  0  0  0  0  0
   15.9177    2.3349    0.0000 C   0  0  0  0  0  0  0  0  0  0  0  0
   16.6322    1.9224    0.0000 C   0  0  0  0  0  0  0  0  0  0  0  0
   17.3467    2.3349    0.0000 C   0  0  0  0  0  0  0  0  0  0  0  0
   18.0612    1.9224    0.0000 N   0  0  0  0  0  0  0  0  0  0  0  0
   18.0612    1.0974    0.0000 C   0  0  0  0  0  0  0  0  0  0  0  0
   18.7756    2.3349    0.0000 C   0  0  0  0  0  0  0  0  0  0  0  0
   19.4901    1.9224    0.0000 C   0  0  0  0  0  0  0  0  0  0  0  0
   19.4901    1.0974    0.0000 C   0  0  0  0  0  0  0  0  0  0  0  0
   20.2046    0.6849    0.0000 C   0  0  3  0  0  0  0  0  0  0  0  0
   20.9190    0.2724    0.0000 C   0  0  0  0  0  0  0  0  0  0  0  0
   21.6335   -0.1401    0.0000 N   0  0  0  0  0  0  0  0  0  0  0  0
   20.6171    1.3993    0.0000 C   0  0  0  0  0  0  0  0  0  0  0  0
   21.4421    1.3993    0.0000 C   0  0  0  0  0  0  0  0  0  0  0  0
   20.2046    2.1138    0.0000 C   0  0  0  0  0  0  0  0  0  0  0  0
   19.7921   -0.0296    0.0000 C   0  0  0  0  0  0  0  0  0  0  0  0
   20.2046   -0.7441    0.0000 C   0  0  0  0  0  0  0  0  0  0  0  0
   19.7921   -1.4586    0.0000 C   0  0  0  0  0  0  0  0  0  0  0  0
   18.9671   -1.4586    0.0000 C   0  0  0  0  0  0  0  0  0  0  0  0
   18.5546   -2.1730    0.0000 O   0  0  0  0  0  0  0  0  0  0  0  0
   18.9671   -2.8875    0.0000 C   0  0  0  0  0  0  0  0  0  0  0  0
   18.5546   -0.7441    0.0000 C   0  0  0  0  0  0  0  0  0  0  0  0
   17.7296   -0.7441    0.0000 O   0  0  0  0  0  0  0  0  0  0  0  0
   17.3171   -0.0296    0.0000 C   0  0  0  0  0  0  0  0  0  0  0  0
   18.9671   -0.0296    0.0000 C   0  0  0  0  0  0  0  0  0  0  0  0
   18.5546    0.6849    0.0000 O   0  0  0  0  0  0  0  0  0  0  0  0
   18.9671    1.3993    0.0000 C   0  0  0  0  0  0  0  0  0  0  0  0
  1  2  1  0  0  0  0
  2  3  1  0  0  0  0
  3  4  1  0  0  0  0
  4  5  1  0  0  0  0
  5  6  1  0  0  0  0
  6  7  1  0  0  0  0
  7  8  1  0  0  0  0
  8  9  1  0  0  0  0
  9 10  1  0  0  0  0
 10 11  1  0  0  0  0
 11 12  1  0  0  0  0
 12 13  1  0  0  0  0
 13 14  1  0  0  0  0
 13 15  1  0  0  0  0
 15 16  1  0  0  0  0
 16 17  1  0  0  0  0
 17 18  1  0  0  0  0
 18 19  1  0  0  0  0
 18 21  1  0  0  0  0
 18 24  1  0  0  0  0
 19 20  3  0  0  0  0
 21 22  1  0  0  0  0
 21 23  1  0  0  0  0
 24 25  2  0  0  0  0
 24 33  1  0  0  0  0
 25 26  1  0  0  0  0
 26 27  2  0  0  0  0
 27 28  1  0  0  0  0
 27 30  1  0  0  0  0
 28 29  1  0  0  0  0
 30 31  1  0  0  0  0
 30 33  2  0  0  0  0
 31 32  1  0  0  0  0
 33 34  1  0  0  0  0
 34 35  1  0  0  0  0
M  END
$$$$

 OpenBabel12191814062D

 33 33  0  0  0  0  0  0  0  0999 V2000
    8.2500    1.2079    0.0000 C   0  0  0  0  0  0  0  0  0  0  0  0
    8.9645    1.6204    0.0000 C   0  0  0  0  0  0  0  0  0  0  0  0
    9.6789    1.2079    0.0000 C   0  0  0  0  0  0  0  0  0  0  0  0
   10.3934    1.6204    0.0000 C   0  0  0  0  0  0  0  0  0  0  0  0
   11.1079    1.2079    0.0000 C   0  0  0  0  0  0  0  0  0  0  0  0
   11.8224    1.6204    0.0000 C   0  0  0  0  0  0  0  0  0  0  0  0
   12.5368    1.2079    0.0000 C   0  0  0  0  0  0  0  0  0  0  0  0
   13.2513    1.6204    0.0000 C   0  0  0  0  0  0  0  0  0  0  0  0
   13.9658    1.2079    0.0000 C   0  0  0  0  0  0  0  0  0  0  0  0
   14.6802    1.6204    0.0000 C   0  0  0  0  0  0  0  0  0  0  0  0
   15.3947    1.2079    0.0000 N   0  0  0  0  0  0  0  0  0  0  0  0
   15.3947    0.3829    0.0000 C   0  0  0  0  0  0  0  0  0  0  0  0
   16.1092    1.6204    0.0000 C   0  0  0  0  0  0  0  0  0  0  0  0
   16.8237    1.2079    0.0000 C   0  0  0  0  0  0  0  0  0  0  0  0
   16.8237    0.3829    0.0000 C   0  0  0  0  0  0  0  0  0  0  0  0
   17.5381   -0.0296    0.0000 C   0  0  3  0  0  0  0  0  0  0  0  0
   18.2526   -0.4421    0.0000 C   0  0  0  0  0  0  0  0  0  0  0  0
   18.9671   -0.8546    0.0000 N   0  0  0  0  0  0  0  0  0  0  0  0
   17.9506    0.6849    0.0000 C   0  0  0  0  0  0  0  0  0  0  0  0
   18.7756    0.6849    0.0000 C   0  0  0  0  0  0  0  0  0  0  0  0
   17.5381    1.3993    0.0000 C   0  0  0  0  0  0  0  0  0  0  0  0
   17.1256   -0.7441    0.0000 C   0  0  0  0  0  0  0  0  0  0  0  0
   17.5381   -1.4586    0.0000 C   0  0  0  0  0  0  0  0  0  0  0  0
   17.1256   -2.1730    0.0000 C   0  0  0  0  0  0  0  0  0  0  0  0
   16.3006   -2.1730    0.0000 C   0  0  0  0  0  0  0  0  0  0  0  0
   15.8881   -2.8875    0.0000 O   0  0  0  0  0  0  0  0  0  0  0  0
   16.3006   -3.6020    0.0000 C   0  0  0  0  0  0  0  0  0  0  0  0
   15.8881   -1.4586    0.0000 C   0  0  0  0  0  0  0  0  0  0  0  0
   15.0631   -1.4586    0.0000 O   0  0  0  0  0  0  0  0  0  0  0  0
   14.6506   -0.7441    0.0000 C   0  0  0  0  0  0  0  0  0  0  0  0
   16.3006   -0.7441    0.0000 C   0  0  0  0  0  0  0  0  0  0  0  0
   15.8881   -0.0296    0.0000 O   0  0  0  0  0  0  0  0  0  0  0  0
   16.3006    0.6849    0.0000 C   0  0  0  0  0  0  0  0  0  0  0  0
  1  2  1  0  0  0  0
  2  3  1  0  0  0  0
  3  4  1  0  0  0  0
  4  5  1  0  0  0  0
  5  6  1  0  0  0  0
  6  7  1  0  0  0  0
  7  8  1  0  0  0  0
  8  9  1  0  0  0  0
  9 10  1  0  0  0  0
 10 11  1  0  0  0  0
 11 12  1  0  0  0  0
 11 13  1  0  0  0  0
 13 14  1  0  0  0  0
 14 15  1  0  0  0  0
 15 16  1  0  0  0  0
 16 17  1  0  0  0  0
 16 19  1  0  0  0  0
 16 22  1  0  0  0  0
 17 18  3  0  0  0  0
 19 20  1  0  0  0  0
 19 21  1  0  0  0  0
 22 23  2  0  0  0  0
 22 31  1  0  0  0  0
 23 24  1  0  0  0  0
 24 25  2  0  0  0  0
 25 26  1  0  0  0  0
 25 28  1  0  0  0  0
 26 27  1  0  0  0  0
 28 29  1  0  0  0  0
 28 31  2  0  0  0  0
 29 30  1  0  0  0  0
 31 32  1  0  0  0  0
 32 33  1  0  0  0  0
M  END
$$$$

 OpenBabel12191814062D

 31 31  0  0  0  0  0  0  0  0999 V2000
    7.0125    0.4934    0.0000 C   0  0  0  0  0  0  0  0  0  0  0  0
    7.7270    0.9059    0.0000 C   0  0  0  0  0  0  0  0  0  0  0  0
    8.4414    0.4934    0.0000 C   0  0  0  0  0  0  0  0  0  0  0  0
    9.1559    0.9059    0.0000 C   0  0  0  0  0  0  0  0  0  0  0  0
    9.8704    0.4934    0.0000 C   0  0  0  0  0  0  0  0  0  0  0  0
   10.5849    0.9059    0.0000 C   0  0  0  0  0  0  0  0  0  0  0  0
   11.2993    0.4934    0.0000 C   0  0  0  0  0  0  0  0  0  0  0  0
   12.0138    0.9059    0.0000 C   0  0  0  0  0  0  0  0  0  0  0  0
   12.7283    0.4934    0.0000 N   0  0  0  0  0  0  0  0  0  0  0  0
   12.7283   -0.3316    0.0000 C   0  0  0  0  0  0  0  0  0  0  0  0
   13.4427    0.9059    0.0000 C   0  0  0  0  0  0  0  0  0  0  0  0
   14.1572    0.4934    0.0000 C   0  0  0  0  0  0  0  0  0  0  0  0
   14.1572   -0.3316    0.0000 C   0  0  0  0  0  0  0  0  0  0  0  0
   14.8717   -0.7441    0.0000 C   0  0  3  0  0  0  0  0  0  0  0  0
   15.5862   -1.1566    0.0000 C   0  0  0  0  0  0  0  0  0  0  0  0
   16.3006   -1.5691    0.0000 N   0  0  0  0  0  0  0  0  0  0  0  0
   15.2842   -0.0296    0.0000 C   0  0  0  0  0  0  0  0  0  0  0  0
   16.1092   -0.0296    0.0000 C   0  0  0  0  0  0  0  0  0  0  0  0
   14.8717    0.6849    0.0000 C   0  0  0  0  0  0  0  0  0  0  0  0
   14.4592   -1.4586    0.0000 C   0  0  0  0  0  0  0  0  0  0  0  0
   14.8717   -2.1730    0.0000 C   0  0  0  0  0  0  0  0  0  0  0  0
   14.4592   -2.8875    0.0000 C   0  0  0  0  0  0  0  0  0  0  0  0
   13.6342   -2.8875    0.0000 C   0  0  0  0  0  0  0  0  0  0  0  0
   13.2217   -3.6020    0.0000 O   0  0  0  0  0  0  0  0  0  0  0  0
   13.6342   -4.3164    0.0000 C   0  0  0  0  0  0  0  0  0  0  0  0
   13.2217   -2.1730    0.0000 C   0  0  0  0  0  0  0  0  0  0  0  0
   12.3967   -2.1730    0.0000 O   0  0  0  0  0  0  0  0  0  0  0  0
   11.9842   -1.4586    0.0000 C   0  0  0  0  0  0  0  0  0  0  0  0
   13.6342   -1.4586    0.0000 C   0  0  0  0  0  0  0  0  0  0  0  0
   13.2217   -0.7441    0.0000 O   0  0  0  0  0  0  0  0  0  0  0  0
   13.6342   -0.0296    0.0000 C   0  0  0  0  0  0  0  0  0  0  0  0
  1  2  1  0  0  0  0
  2  3  1  0  0  0  0
  3  4  1  0  0  0  0
  4  5  1  0  0  0  0
  5  6  1  0  0  0  0
  6  7  1  0  0  0  0
  7  8  1  0  0  0  0
  8  9  1  0  0  0  0
  9 10  1  0  0  0  0
  9 11  1  0  0  0  0
 11 12  1  0  0  0  0
 12 13  1  0  0  0  0
 13 14  1  0  0  0  0
 14 15  1  0  0  0  0
 14 17  1  0  0  0  0
 14 20  1  0  0  0  0
 15 16  3  0  0  0  0
 17 18  1  0  0  0  0
 17 19  1  0  0  0  0
 20 21  2  0  0  0  0
 20 29  1  0  0  0  0
 21 22  1  0  0  0  0
 22 23  2  0  0  0  0
 23 24  1  0  0  0  0
 23 26  1  0  0  0  0
 24 25  1  0  0  0  0
 26 27  1  0  0  0  0
 26 29  2  0  0  0  0
 27 28  1  0  0  0  0
 29 30  1  0  0  0  0
 30 31  1  0  0  0  0
M  END
$$$$

 OpenBabel12191814062D

 36 38  0  0  0  0  0  0  0  0999 V2000
   -3.6232   -3.4105    0.0000 C   0  0  0  0  0  0  0  0  0  0  0  0
   -3.0831   -2.7868    0.0000 C   0  0  0  0  0  0  0  0  0  0  0  0
   -2.2730   -2.9427    0.0000 C   0  0  0  0  0  0  0  0  0  0  0  0
   -1.7329   -2.3191    0.0000 C   0  0  0  0  0  0  0  0  0  0  0  0
   -0.9227   -2.4750    0.0000 C   0  0  0  0  0  0  0  0  0  0  0  0
   -0.3827   -1.8514    0.0000 C   0  0  0  0  0  0  0  0  0  0  0  0
    0.4275   -2.0073    0.0000 C   0  0  0  0  0  0  0  0  0  0  0  0
    0.9676   -1.3836    0.0000 C   0  0  0  0  0  0  0  0  0  0  0  0
    1.7777   -1.5395    0.0000 O   0  0  0  0  0  0  0  0  0  0  0  0
    2.3178   -0.9159    0.0000 C   0  0  0  0  0  0  0  0  0  0  0  0
    2.0477   -0.1363    0.0000 C   0  0  0  0  0  0  0  0  0  0  0  0
    2.5878    0.4873    0.0000 C   0  0  0  0  0  0  0  0  0  0  0  0
    2.3178    1.2668    0.0000 O   0  0  0  0  0  0  0  0  0  0  0  0
    2.8579    1.8905    0.0000 C   0  0  0  0  0  0  0  0  0  0  0  0
    3.6680    1.7346    0.0000 C   0  0  0  0  0  0  0  0  0  0  0  0
    3.9381    0.9550    0.0000 C   0  0  0  0  0  0  0  0  0  0  0  0
    4.7482    0.7991    0.0000 O   0  0  0  0  0  0  0  0  0  0  0  0
    3.3980    0.3314    0.0000 C   0  0  0  0  0  0  0  0  0  0  0  0
    3.6680   -0.4482    0.0000 C   0  0  0  0  0  0  0  0  0  0  0  0
    4.4782   -0.6041    0.0000 O   0  0  0  0  0  0  0  0  0  0  0  0
    3.1279   -1.0718    0.0000 C   0  0  0  0  0  0  0  0  0  0  0  0
    3.3980   -1.8514    0.0000 O   0  0  0  0  0  0  0  0  0  0  0  0
    2.8579   -2.4750    0.0000 C   0  0  0  0  0  0  0  0  0  0  0  0
    3.1279   -3.2546    0.0000 C   0  0  0  0  0  0  0  0  0  0  0  0
    3.9381   -3.4105    0.0000 C   0  0  0  0  0  0  0  0  0  0  0  0
    4.4782   -2.7868    0.0000 C   0  0  0  0  0  0  0  0  0  0  0  0
    5.2883   -2.9427    0.0000 C   0  0  0  0  0  0  0  0  0  0  0  0
    5.8284   -2.3191    0.0000 C   0  0  0  0  0  0  0  0  0  0  0  0
    6.6385   -2.4750    0.0000 C   0  0  0  0  0  0  0  0  0  0  0  0
    7.1786   -1.8514    0.0000 C   0  0  0  0  0  0  0  0  0  0  0  0
    2.5878    2.6700    0.0000 C   0  0  0  0  0  0  0  0  0  0  0  0
    1.7777    2.8260    0.0000 C   0  0  0  0  0  0  0  0  0  0  0  0
    1.5077    3.6055    0.0000 C   0  0  0  0  0  0  0  0  0  0  0  0
    2.0477    4.2291    0.0000 C   0  0  0  0  0  0  0  0  0  0  0  0
    2.8579    4.0732    0.0000 C   0  0  0  0  0  0  0  0  0  0  0  0
    3.1279    3.2937    0.0000 C   0  0  0  0  0  0  0  0  0  0  0  0
  1  2  1  0  0  0  0
  2  3  1  0  0  0  0
  3  4  1  0  0  0  0
  4  5  1  0  0  0  0
  5  6  1  0  0  0  0
  6  7  1  0  0  0  0
  7  8  1  0  0  0  0
  8  9  1  0  0  0  0
  9 10  1  0  0  0  0
 10 11  2  0  0  0  0
 10 21  1  0  0  0  0
 11 12  1  0  0  0  0
 12 13  1  0  0  0  0
 12 18  2  0  0  0  0
 13 14  1  0  0  0  0
 14 15  2  0  0  0  0
 14 31  1  0  0  0  0
 15 16  1  0  0  0  0
 16 17  2  0  0  0  0
 16 18  1  0  0  0  0
 18 19  1  0  0  0  0
 19 20  1  0  0  0  0
 19 21  2  0  0  0  0
 21 22  1  0  0  0  0
 22 23  1  0  0  0  0
 23 24  1  0  0  0  0
 24 25  1  0  0  0  0
 25 26  1  0  0  0  0
 26 27  1  0  0  0  0
 27 28  1  0  0  0  0
 28 29  1  0  0  0  0
 29 30  1  0  0  0  0
 31 32  2  0  0  0  0
 31 36  1  0  0  0  0
 32 33  1  0  0  0  0
 33 34  2  0  0  0  0
 34 35  1  0  0  0  0
 35 36  2  0  0  0  0
M  END
$$$$

 OpenBabel12191814062D

 39 42  0  0  0  0  0  0  0  0999 V2000
   -4.2475   -2.4742    0.0000 C   0  0  0  0  0  0  0  0  0  0  0  0
   -3.5330   -2.0617    0.0000 C   0  0  0  0  0  0  0  0  0  0  0  0
   -2.8186   -2.4742    0.0000 C   0  0  0  0  0  0  0  0  0  0  0  0
   -2.1041   -2.0617    0.0000 C   0  0  0  0  0  0  0  0  0  0  0  0
   -1.3896   -2.4742    0.0000 C   0  0  0  0  0  0  0  0  0  0  0  0
   -0.6751   -2.0617    0.0000 C   0  0  0  0  0  0  0  0  0  0  0  0
    0.0393   -2.4742    0.0000 N   0  0  0  0  0  0  0  0  0  0  0  0
    0.7930   -2.1386    0.0000 C   0  0  0  0  0  0  0  0  0  0  0  0
    1.3450   -2.7517    0.0000 N   0  0  0  0  0  0  0  0  0  0  0  0
    0.9325   -3.4662    0.0000 C   0  0  0  0  0  0  0  0  0  0  0  0
    0.1256   -3.2947    0.0000 C   0  0  0  0  0  0  0  0  0  0  0  0
   -0.4875   -3.8467    0.0000 C   0  0  0  0  0  0  0  0  0  0  0  0
   -0.3160   -4.6537    0.0000 C   0  0  0  0  0  0  0  0  0  0  0  0
   -0.9291   -5.2057    0.0000 C   0  0  0  0  0  0  0  0  0  0  0  0
   -1.7137   -4.9508    0.0000 C   0  0  0  0  0  0  0  0  0  0  0  0
   -1.8852   -4.1438    0.0000 C   0  0  0  0  0  0  0  0  0  0  0  0
   -1.2721   -3.5917    0.0000 C   0  0  0  0  0  0  0  0  0  0  0  0
   -2.3268   -5.5028    0.0000 N   0  0  0  0  0  0  0  0  0  0  0  0
   -3.1114   -5.2478    0.0000 C   0  0  0  0  0  0  0  0  0  0  0  0
   -2.1553   -6.3098    0.0000 C   0  0  0  0  0  0  0  0  0  0  0  0
    1.2681   -4.2199    0.0000 C   0  0  0  0  0  0  0  0  0  0  0  0
    2.0886   -4.3061    0.0000 C   0  0  0  0  0  0  0  0  0  0  0  0
    2.4241   -5.0598    0.0000 C   0  0  0  0  0  0  0  0  0  0  0  0
    1.9392   -5.7272    0.0000 C   0  0  0  0  0  0  0  0  0  0  0  0
    1.1187   -5.6410    0.0000 C   0  0  0  0  0  0  0  0  0  0  0  0
    0.7832   -4.8873    0.0000 C   0  0  0  0  0  0  0  0  0  0  0  0
    2.2748   -6.4809    0.0000 N   0  0  0  0  0  0  0  0  0  0  0  0
    1.7898   -7.1483    0.0000 C   0  0  0  0  0  0  0  0  0  0  0  0
    3.0953   -6.5671    0.0000 C   0  0  0  0  0  0  0  0  0  0  0  0
    0.9645   -1.3316    0.0000 C   0  0  0  0  0  0  0  0  0  0  0  0
    0.3514   -0.7796    0.0000 C   0  0  0  0  0  0  0  0  0  0  0  0
    0.5230    0.0274    0.0000 C   0  0  0  0  0  0  0  0  0  0  0  0
    1.3076    0.2823    0.0000 C   0  0  0  0  0  0  0  0  0  0  0  0
    1.9207   -0.2697    0.0000 C   0  0  0  0  0  0  0  0  0  0  0  0
    1.7492   -1.0767    0.0000 C   0  0  0  0  0  0  0  0  0  0  0  0
    1.4791    1.0893    0.0000 C   0  0  0  0  0  0  0  0  0  0  0  0
    0.8660    1.6413    0.0000 O   0  0  0  0  0  0  0  0  0  0  0  0
    2.2637    1.3442    0.0000 O   0  0  0  0  0  0  0  0  0  0  0  0
    2.4353    2.1512    0.0000 C   0  0  0  0  0  0  0  0  0  0  0  0
  1  2  1  0  0  0  0
  2  3  1  0  0  0  0
  3  4  1  0  0  0  0
  4  5  1  0  0  0  0
  5  6  1  0  0  0  0
  6  7  1  0  0  0  0
  7  8  1  0  0  0  0
  7 11  1  0  0  0  0
  8  9  2  0  0  0  0
  8 30  1  0  0  0  0
  9 10  1  0  0  0  0
 10 11  2  0  0  0  0
 10 21  1  0  0  0  0
 11 12  1  0  0  0  0
 12 13  2  0  0  0  0
 12 17  1  0  0  0  0
 13 14  1  0  0  0  0
 14 15  2  0  0  0  0
 15 16  1  0  0  0  0
 15 18  1  0  0  0  0
 16 17  2  0  0  0  0
 18 19  1  0  0  0  0
 18 20  1  0  0  0  0
 21 22  2  0  0  0  0
 21 26  1  0  0  0  0
 22 23  1  0  0  0  0
 23 24  2  0  0  0  0
 24 25  1  0  0  0  0
 24 27  1  0  0  0  0
 25 26  2  0  0  0  0
 27 28  1  0  0  0  0
 27 29  1  0  0  0  0
 30 31  2  0  0  0  0
 30 35  1  0  0  0  0
 31 32  1  0  0  0  0
 32 33  2  0  0  0  0
 33 34  1  0  0  0  0
 33 36  1  0  0  0  0
 34 35  2  0  0  0  0
 36 37  2  0  0  0  0
 36 38  1  0  0  0  0
 38 39  1  0  0  0  0
M  END
$$$$

 OpenBabel12191814062D

 38 41  0  0  0  0  0  0  0  0999 V2000
   -3.3644    1.0688    0.0000 C   0  0  0  0  0  0  0  0  0  0  0  0
   -2.6499    0.6563    0.0000 C   0  0  0  0  0  0  0  0  0  0  0  0
   -1.9354    1.0688    0.0000 C   0  0  0  0  0  0  0  0  0  0  0  0
   -1.2209    0.6563    0.0000 C   0  0  0  0  0  0  0  0  0  0  0  0
   -0.5065    1.0688    0.0000 C   0  0  0  0  0  0  0  0  0  0  0  0
    0.2080    0.6563    0.0000 C   0  0  0  0  0  0  0  0  0  0  0  0
    0.9225    1.0688    0.0000 N   0  0  0  0  0  0  0  0  0  0  0  0
    1.0087    1.8893    0.0000 C   0  0  0  0  0  0  0  0  0  0  0  0
    1.8157    2.0608    0.0000 N   0  0  0  0  0  0  0  0  0  0  0  0
    2.2282    1.3464    0.0000 C   0  0  0  0  0  0  0  0  0  0  0  0
    1.6761    0.7333    0.0000 C   0  0  0  0  0  0  0  0  0  0  0  0
    1.8477   -0.0737    0.0000 C   0  0  0  0  0  0  0  0  0  0  0  0
    2.6323   -0.3286    0.0000 C   0  0  0  0  0  0  0  0  0  0  0  0
    2.8038   -1.1356    0.0000 C   0  0  0  0  0  0  0  0  0  0  0  0
    2.1907   -1.6876    0.0000 C   0  0  0  0  0  0  0  0  0  0  0  0
    1.4061   -1.4327    0.0000 C   0  0  0  0  0  0  0  0  0  0  0  0
    1.2346   -0.6257    0.0000 C   0  0  0  0  0  0  0  0  0  0  0  0
    2.3623   -2.4946    0.0000 N   0  0  0  0  0  0  0  0  0  0  0  0
    1.7492   -3.0466    0.0000 C   0  0  0  0  0  0  0  0  0  0  0  0
    3.1469   -2.7495    0.0000 C   0  0  0  0  0  0  0  0  0  0  0  0
    3.0487    1.2601    0.0000 C   0  0  0  0  0  0  0  0  0  0  0  0
    3.5336    1.9276    0.0000 C   0  0  0  0  0  0  0  0  0  0  0  0
    4.3541    1.8413    0.0000 C   0  0  0  0  0  0  0  0  0  0  0  0
    4.6896    1.0877    0.0000 C   0  0  0  0  0  0  0  0  0  0  0  0
    4.2047    0.4202    0.0000 C   0  0  0  0  0  0  0  0  0  0  0  0
    3.3842    0.5065    0.0000 C   0  0  0  0  0  0  0  0  0  0  0  0
    5.5101    1.0014    0.0000 N   0  0  0  0  0  0  0  0  0  0  0  0
    5.9950    1.6689    0.0000 C   0  0  0  0  0  0  0  0  0  0  0  0
    5.8457    0.2478    0.0000 C   0  0  0  0  0  0  0  0  0  0  0  0
    0.3956    2.4414    0.0000 C   0  0  0  0  0  0  0  0  0  0  0  0
   -0.3890    2.1864    0.0000 C   0  0  0  0  0  0  0  0  0  0  0  0
   -1.0021    2.7384    0.0000 C   0  0  0  0  0  0  0  0  0  0  0  0
   -0.8306    3.5454    0.0000 C   0  0  0  0  0  0  0  0  0  0  0  0
   -0.0460    3.8004    0.0000 C   0  0  0  0  0  0  0  0  0  0  0  0
    0.5671    3.2483    0.0000 C   0  0  0  0  0  0  0  0  0  0  0  0
   -1.4437    4.0974    0.0000 C   0  0  0  0  0  0  0  0  0  0  0  0
   -1.2721    4.9044    0.0000 O   0  0  0  0  0  0  0  0  0  0  0  0
   -2.2283    3.8425    0.0000 O   0  0  0  0  0  0  0  0  0  0  0  0
  1  2  1  0  0  0  0
  2  3  1  0  0  0  0
  3  4  1  0  0  0  0
  4  5  1  0  0  0  0
  5  6  1  0  0  0  0
  6  7  1  0  0  0  0
  7  8  1  0  0  0  0
  7 11  1  0  0  0  0
  8  9  2  0  0  0  0
  8 30  1  0  0  0  0
  9 10  1  0  0  0  0
 10 11  2  0  0  0  0
 10 21  1  0  0  0  0
 11 12  1  0  0  0  0
 12 13  2  0  0  0  0
 12 17  1  0  0  0  0
 13 14  1  0  0  0  0
 14 15  2  0  0  0  0
 15 16  1  0  0  0  0
 15 18  1  0  0  0  0
 16 17  2  0  0  0  0
 18 19  1  0  0  0  0
 18 20  1  0  0  0  0
 21 22  2  0  0  0  0
 21 26  1  0  0  0  0
 22 23  1  0  0  0  0
 23 24  2  0  0  0  0
 24 25  1  0  0  0  0
 24 27  1  0  0  0  0
 25 26  2  0  0  0  0
 27 28  1  0  0  0  0
 27 29  1  0  0  0  0
 30 31  2  0  0  0  0
 30 35  1  0  0  0  0
 31 32  1  0  0  0  0
 32 33  2  0  0  0  0
 33 34  1  0  0  0  0
 33 36  1  0  0  0  0
 34 35  2  0  0  0  0
 36 37  1  0  0  0  0
 36 38  2  0  0  0  0
M  END
$$$$

 OpenBabel12191814062D

 24 25  0  0  0  0  0  0  0  0999 V2000
   -4.2868   -5.7750    0.0000 C   0  0  0  0  0  0  0  0  0  0  0  0
   -3.5724   -5.3625    0.0000 C   0  0  0  0  0  0  0  0  0  0  0  0
   -2.8579   -5.7750    0.0000 C   0  0  0  0  0  0  0  0  0  0  0  0
   -2.1434   -5.3625    0.0000 C   0  0  0  0  0  0  0  0  0  0  0  0
   -1.4289   -5.7750    0.0000 C   0  0  0  0  0  0  0  0  0  0  0  0
   -0.7145   -5.3625    0.0000 C   0  0  0  0  0  0  0  0  0  0  0  0
    0.0000   -5.7750    0.0000 N   0  0  0  0  0  0  0  0  0  0  0  0
    0.7145   -5.3625    0.0000 C   0  0  0  0  0  0  0  0  0  0  0  0
    1.4289   -5.7750    0.0000 C   0  0  0  0  0  0  0  0  0  0  0  0
    1.4289   -6.6000    0.0000 N   0  0  0  0  0  0  0  0  0  0  0  0
    0.7145   -7.0125    0.0000 C   0  0  0  0  0  0  0  0  0  0  0  0
    0.0000   -6.6000    0.0000 C   0  0  0  0  0  0  0  0  0  0  0  0
    2.1434   -7.0125    0.0000 C   0  0  0  0  0  0  0  0  0  0  0  0
    2.1434   -7.8375    0.0000 N   0  0  0  0  0  0  0  0  0  0  0  0
    2.8579   -8.2500    0.0000 C   0  0  0  0  0  0  0  0  0  0  0  0
    2.8579   -9.0750    0.0000 C   0  0  0  0  0  0  0  0  0  0  0  0
    3.5724   -9.4875    0.0000 C   0  0  0  0  0  0  0  0  0  0  0  0
    2.1434   -9.4875    0.0000 C   0  0  0  0  0  0  0  0  0  0  0  0
    2.8579   -6.6000    0.0000 C   0  0  0  0  0  0  0  0  0  0  0  0
    2.8579   -5.7750    0.0000 C   0  0  0  0  0  0  0  0  0  0  0  0
    3.5724   -5.3625    0.0000 C   0  0  0  0  0  0  0  0  0  0  0  0
    4.2868   -5.7750    0.0000 C   0  0  0  0  0  0  0  0  0  0  0  0
    4.2868   -6.6000    0.0000 C   0  0  0  0  0  0  0  0  0  0  0  0
    3.5724   -7.0125    0.0000 C   0  0  0  0  0  0  0  0  0  0  0  0
  1  2  1  0  0  0  0
  2  3  1  0  0  0  0
  3  4  1  0  0  0  0
  4  5  1  0  0  0  0
  5  6  1  0  0  0  0
  6  7  1  0  0  0  0
  7  8  1  0  0  0  0
  7 12  1  0  0  0  0
  8  9  1  0  0  0  0
  9 10  1  0  0  0  0
 10 11  1  0  0  0  0
 10 13  1  0  0  0  0
 11 12  1  0  0  0  0
 13 14  2  0  0  0  0
 13 19  1  0  0  0  0
 14 15  1  0  0  0  0
 15 16  1  0  0  0  0
 16 17  1  0  0  0  0
 16 18  1  0  0  0  0
 19 20  2  0  0  0  0
 19 24  1  0  0  0  0
 20 21  1  0  0  0  0
 21 22  2  0  0  0  0
 22 23  1  0  0  0  0
 23 24  2  0  0  0  0
M  END
$$$$

 OpenBabel12191814062D

 33 35  0  0  0  0  0  0  0  0999 V2000
    6.4302   -3.7125    0.0000 C   0  0  0  0  0  0  0  0  0  0  0  0
    5.7158   -3.3000    0.0000 C   0  0  0  0  0  0  0  0  0  0  0  0
    5.0013   -3.7125    0.0000 C   0  0  0  0  0  0  0  0  0  0  0  0
    4.2868   -3.3000    0.0000 C   0  0  0  0  0  0  0  0  0  0  0  0
    3.5724   -3.7125    0.0000 C   0  0  0  0  0  0  0  0  0  0  0  0
    2.8579   -3.3000    0.0000 C   0  0  0  0  0  0  0  0  0  0  0  0
    2.1434   -3.7125    0.0000 O   0  0  0  0  0  0  0  0  0  0  0  0
    1.4289   -3.3000    0.0000 C   0  0  0  0  0  0  0  0  0  0  0  0
    0.7145   -3.7125    0.0000 C   0  0  0  0  0  0  0  0  0  0  0  0
    0.0000   -3.3000    0.0000 C   0  0  0  0  0  0  0  0  0  0  0  0
   -0.7145   -3.7125    0.0000 O   0  0  0  0  0  0  0  0  0  0  0  0
   -1.4289   -3.3000    0.0000 C   0  0  0  0  0  0  0  0  0  0  0  0
   -1.4289   -2.4750    0.0000 C   0  0  0  0  0  0  0  0  0  0  0  0
   -0.7145   -2.0625    0.0000 C   0  0  0  0  0  0  0  0  0  0  0  0
   -0.7145   -1.2375    0.0000 O   0  0  0  0  0  0  0  0  0  0  0  0
    0.0000   -2.4750    0.0000 C   0  0  0  0  0  0  0  0  0  0  0  0
    0.7145   -2.0625    0.0000 C   0  0  0  0  0  0  0  0  0  0  0  0
    0.7145   -1.2375    0.0000 O   0  0  0  0  0  0  0  0  0  0  0  0
    1.4289   -0.8250    0.0000 C   0  0  0  0  0  0  0  0  0  0  0  0
    1.4289   -2.4750    0.0000 C   0  0  0  0  0  0  0  0  0  0  0  0
    2.1434   -2.0625    0.0000 O   0  0  0  0  0  0  0  0  0  0  0  0
    2.8579   -2.4750    0.0000 C   0  0  0  0  0  0  0  0  0  0  0  0
    3.5724   -2.0625    0.0000 C   0  0  0  0  0  0  0  0  0  0  0  0
    4.2868   -2.4750    0.0000 C   0  0  0  0  0  0  0  0  0  0  0  0
    5.0013   -2.0625    0.0000 C   0  0  0  0  0  0  0  0  0  0  0  0
    5.7158   -2.4750    0.0000 C   0  0  0  0  0  0  0  0  0  0  0  0
    6.4302   -2.0625    0.0000 C   0  0  0  0  0  0  0  0  0  0  0  0
   -2.1434   -3.7125    0.0000 C   0  0  0  0  0  0  0  0  0  0  0  0
   -2.1434   -4.5375    0.0000 C   0  0  0  0  0  0  0  0  0  0  0  0
   -2.8579   -4.9500    0.0000 C   0  0  0  0  0  0  0  0  0  0  0  0
   -3.5724   -4.5375    0.0000 C   0  0  0  0  0  0  0  0  0  0  0  0
   -3.5724   -3.7125    0.0000 C   0  0  0  0  0  0  0  0  0  0  0  0
   -2.8579   -3.3000    0.0000 C   0  0  0  0  0  0  0  0  0  0  0  0
  1  2  1  0  0  0  0
  2  3  1  0  0  0  0
  3  4  1  0  0  0  0
  4  5  1  0  0  0  0
  5  6  1  0  0  0  0
  6  7  1  0  0  0  0
  7  8  1  0  0  0  0
  8  9  2  0  0  0  0
  8 20  1  0  0  0  0
  9 10  1  0  0  0  0
 10 11  1  0  0  0  0
 10 16  2  0  0  0  0
 11 12  1  0  0  0  0
 12 13  2  0  0  0  0
 12 28  1  0  0  0  0
 13 14  1  0  0  0  0
 14 15  2  0  0  0  0
 14 16  1  0  0  0  0
 16 17  1  0  0  0  0
 17 18  1  0  0  0  0
 17 20  2  0  0  0  0
 18 19  1  0  0  0  0
 20 21  1  0  0  0  0
 21 22  1  0  0  0  0
 22 23  1  0  0  0  0
 23 24  1  0  0  0  0
 24 25  1  0  0  0  0
 25 26  1  0  0  0  0
 26 27  1  0  0  0  0
 28 29  2  0  0  0  0
 28 33  1  0  0  0  0
 29 30  1  0  0  0  0
 30 31  2  0  0  0  0
 31 32  1  0  0  0  0
 32 33  2  0  0  0  0
M  END
$$$$

 OpenBabel12191814062D

 52 56  0  0  0  0  0  0  0  0999 V2000
   -0.5837   -4.2703    0.0000 C   0  0  0  0  0  0  0  0  0  0  0  0
   -0.9962   -3.5558    0.0000 C   0  0  0  0  0  0  0  0  0  0  0  0
   -1.8212   -3.5558    0.0000 C   0  0  0  0  0  0  0  0  0  0  0  0
   -2.2337   -2.8414    0.0000 C   0  0  0  0  0  0  0  0  0  0  0  0
   -3.0587   -2.8414    0.0000 C   0  0  0  0  0  0  0  0  0  0  0  0
   -3.4712   -2.1269    0.0000 C   0  0  0  0  0  0  0  0  0  0  0  0
   -3.0587   -1.4124    0.0000 S   0  0  0  0  0  0  0  0  0  0  0  0
   -2.3442   -1.8249    0.0000 O   0  0  0  0  0  0  0  0  0  0  0  0
   -3.7732   -0.9999    0.0000 O   0  0  0  0  0  0  0  0  0  0  0  0
   -2.6462   -0.6979    0.0000 O   0  0  0  0  0  0  0  0  0  0  0  0
   -1.8212   -0.6979    0.0000 C   0  0  0  0  0  0  0  0  0  0  0  0
   -1.4087    0.0165    0.0000 C   0  0  0  0  0  0  0  0  0  0  0  0
   -0.5837    0.0165    0.0000 C   0  0  0  0  0  0  0  0  0  0  0  0
   -0.1712   -0.6979    0.0000 C   0  0  0  0  0  0  0  0  0  0  0  0
   -0.5837   -1.4124    0.0000 C   0  0  0  0  0  0  0  0  0  0  0  0
   -1.4087   -1.4124    0.0000 C   0  0  0  0  0  0  0  0  0  0  0  0
    0.6538   -0.6979    0.0000 C   0  0  0  0  0  0  0  0  0  0  0  0
    1.1387   -0.0305    0.0000 S   0  0  0  0  0  0  0  0  0  0  0  0
    1.9233   -0.2854    0.0000 C   0  0  0  0  0  0  0  0  0  0  0  0
    2.6378    0.1271    0.0000 C   0  0  0  0  0  0  0  0  0  0  0  0
    3.3523   -0.2854    0.0000 C   0  0  0  0  0  0  0  0  0  0  0  0
    4.0668    0.1271    0.0000 O   0  0  0  0  0  0  0  0  0  0  0  0
    4.0668    0.9521    0.0000 S   0  0  0  0  0  0  0  0  0  0  0  0
    3.2418    0.9521    0.0000 O   0  0  0  0  0  0  0  0  0  0  0  0
    4.8918    0.9521    0.0000 O   0  0  0  0  0  0  0  0  0  0  0  0
    4.0668    1.7771    0.0000 C   0  0  0  0  0  0  0  0  0  0  0  0
    4.7812    2.1896    0.0000 C   0  0  0  0  0  0  0  0  0  0  0  0
    4.7812    3.0146    0.0000 C   0  0  0  0  0  0  0  0  0  0  0  0
    5.4957    3.4271    0.0000 C   0  0  0  0  0  0  0  0  0  0  0  0
    5.4957    4.2521    0.0000 C   0  0  0  0  0  0  0  0  0  0  0  0
    6.2102    4.6646    0.0000 C   0  0  0  0  0  0  0  0  0  0  0  0
    3.3523   -1.1104    0.0000 C   0  0  0  0  0  0  0  0  0  0  0  0
    2.6378   -1.5229    0.0000 C   0  0  0  0  0  0  0  0  0  0  0  0
    1.9233   -1.1104    0.0000 C   0  0  0  0  0  0  0  0  0  0  0  0
    1.1387   -1.3654    0.0000 C   0  0  0  0  0  0  0  0  0  0  0  0
    0.8838   -2.1500    0.0000 C   0  0  0  0  0  0  0  0  0  0  0  0
    0.0768   -2.3215    0.0000 O   0  0  0  0  0  0  0  0  0  0  0  0
    1.4358   -2.7631    0.0000 C   0  0  0  0  0  0  0  0  0  0  0  0
    2.2428   -2.5916    0.0000 C   0  0  0  0  0  0  0  0  0  0  0  0
    2.7948   -3.2047    0.0000 C   0  0  0  0  0  0  0  0  0  0  0  0
    2.5399   -3.9893    0.0000 C   0  0  0  0  0  0  0  0  0  0  0  0
    3.0919   -4.6024    0.0000 O   0  0  0  0  0  0  0  0  0  0  0  0
    2.8370   -5.3870    0.0000 C   0  0  0  0  0  0  0  0  0  0  0  0
    3.3890   -6.0001    0.0000 C   0  0  0  0  0  0  0  0  0  0  0  0
    4.1960   -5.8286    0.0000 N   0  0  0  0  0  0  0  0  0  0  0  0
    4.4509   -5.0439    0.0000 C   0  0  0  0  0  0  0  0  0  0  0  0
    5.2579   -4.8724    0.0000 C   0  0  0  0  0  0  0  0  0  0  0  0
    5.8099   -5.4855    0.0000 C   0  0  0  0  0  0  0  0  0  0  0  0
    5.5550   -6.2701    0.0000 C   0  0  0  0  0  0  0  0  0  0  0  0
    4.7480   -6.4417    0.0000 C   0  0  0  0  0  0  0  0  0  0  0  0
    1.7329   -4.1608    0.0000 C   0  0  0  0  0  0  0  0  0  0  0  0
    1.1809   -3.5477    0.0000 C   0  0  0  0  0  0  0  0  0  0  0  0
  1  2  1  0  0  0  0
  2  3  1  0  0  0  0
  3  4  1  0  0  0  0
  4  5  1  0  0  0  0
  5  6  1  0  0  0  0
  6  7  1  0  0  0  0
  7  8  2  0  0  0  0
  7  9  2  0  0  0  0
  7 10  1  0  0  0  0
 10 11  1  0  0  0  0
 11 12  2  0  0  0  0
 11 16  1  0  0  0  0
 12 13  1  0  0  0  0
 13 14  2  0  0  0  0
 14 15  1  0  0  0  0
 14 17  1  0  0  0  0
 15 16  2  0  0  0  0
 17 18  1  0  0  0  0
 17 35  2  0  0  0  0
 18 19  1  0  0  0  0
 19 20  2  0  0  0  0
 19 34  1  0  0  0  0
 20 21  1  0  0  0  0
 21 22  1  0  0  0  0
 21 32  2  0  0  0  0
 22 23  1  0  0  0  0
 23 24  2  0  0  0  0
 23 25  2  0  0  0  0
 23 26  1  0  0  0  0
 26 27  1  0  0  0  0
 27 28  1  0  0  0  0
 28 29  1  0  0  0  0
 29 30  1  0  0  0  0
 30 31  1  0  0  0  0
 32 33  1  0  0  0  0
 33 34  2  0  0  0  0
 34 35  1  0  0  0  0
 35 36  1  0  0  0  0
 36 37  2  0  0  0  0
 36 38  1  0  0  0  0
 38 39  2  0  0  0  0
 38 52  1  0  0  0  0
 39 40  1  0  0  0  0
 40 41  2  0  0  0  0
 41 42  1  0  0  0  0
 41 51  1  0  0  0  0
 42 43  1  0  0  0  0
 43 44  1  0  0  0  0
 44 45  1  0  0  0  0
 45 46  1  0  0  0  0
 45 50  1  0  0  0  0
 46 47  1  0  0  0  0
 47 48  1  0  0  0  0
 48 49  1  0  0  0  0
 49 50  1  0  0  0  0
 51 52  2  0  0  0  0
M  END
$$$$

 OpenBabel12191814062D

 30 30  0  0  0  0  0  0  0  0999 V2000
   -2.1434   -7.8375    0.0000 C   0  0  0  0  0  0  0  0  0  0  0  0
   -1.4289   -7.4250    0.0000 C   0  0  0  0  0  0  0  0  0  0  0  0
   -0.7145   -7.8375    0.0000 C   0  0  0  0  0  0  0  0  0  0  0  0
    0.0000   -7.4250    0.0000 C   0  0  0  0  0  0  0  0  0  0  0  0
    0.7145   -7.8375    0.0000 C   0  0  0  0  0  0  0  0  0  0  0  0
    1.4289   -7.4250    0.0000 N   0  0  0  0  0  0  0  0  0  0  0  0
    1.4289   -6.6000    0.0000 C   0  0  0  0  0  0  0  0  0  0  0  0
    0.7145   -6.1875    0.0000 C   0  0  0  0  0  0  0  0  0  0  0  0
    0.7145   -5.3625    0.0000 C   0  0  0  0  0  0  0  0  0  0  0  0
    0.0000   -4.9500    0.0000 O   0  0  0  0  0  0  0  0  0  0  0  0
    0.0000   -4.1250    0.0000 C   0  0  0  0  0  0  0  0  0  0  0  0
    2.1434   -7.8375    0.0000 C   0  0  0  0  0  0  0  0  0  0  0  0
    2.1434   -8.6625    0.0000 O   0  0  0  0  0  0  0  0  0  0  0  0
    2.8579   -7.4250    0.0000 C   0  0  3  0  0  0  0  0  0  0  0  0
    2.8579   -6.6000    0.0000 C   0  0  0  0  0  0  0  0  0  0  0  0
    3.5724   -6.1875    0.0000 C   0  0  0  0  0  0  0  0  0  0  0  0
    3.5724   -5.3625    0.0000 C   0  0  0  0  0  0  0  0  0  0  0  0
    2.8579   -4.9500    0.0000 O   0  0  0  0  0  0  0  0  0  0  0  0
    4.2868   -4.9500    0.0000 O   0  0  0  0  0  0  0  0  0  0  0  0
    3.5724   -7.8375    0.0000 N   0  0  0  0  0  0  0  0  0  0  0  0
    4.2868   -7.4250    0.0000 C   0  0  0  0  0  0  0  0  0  0  0  0
    4.2868   -6.6000    0.0000 O   0  0  0  0  0  0  0  0  0  0  0  0
    5.0013   -7.8375    0.0000 C   0  0  0  0  0  0  0  0  0  0  0  0
    5.7158   -7.4250    0.0000 C   0  0  0  0  0  0  0  0  0  0  0  0
    6.4302   -7.8375    0.0000 C   0  0  0  0  0  0  0  0  0  0  0  0
    6.4302   -8.6625    0.0000 C   0  0  0  0  0  0  0  0  0  0  0  0
    7.1447   -9.0750    0.0000 Cl  0  0  0  0  0  0  0  0  0  0  0  0
    5.7158   -9.0750    0.0000 C   0  0  0  0  0  0  0  0  0  0  0  0
    5.7158   -9.9000    0.0000 Cl  0  0  0  0  0  0  0  0  0  0  0  0
    5.0013   -8.6625    0.0000 C   0  0  0  0  0  0  0  0  0  0  0  0
  1  2  1  0  0  0  0
  2  3  1  0  0  0  0
  3  4  1  0  0  0  0
  4  5  1  0  0  0  0
  5  6  1  0  0  0  0
  6  7  1  0  0  0  0
  6 12  1  0  0  0  0
  7  8  1  0  0  0  0
  8  9  1  0  0  0  0
  9 10  1  0  0  0  0
 10 11  1  0  0  0  0
 12 13  2  0  0  0  0
 12 14  1  0  0  0  0
 14 15  1  0  0  0  0
 14 20  1  0  0  0  0
 15 16  1  0  0  0  0
 16 17  1  0  0  0  0
 17 18  1  0  0  0  0
 17 19  2  0  0  0  0
 20 21  1  0  0  0  0
 21 22  2  0  0  0  0
 21 23  1  0  0  0  0
 23 24  2  0  0  0  0
 23 30  1  0  0  0  0
 24 25  1  0  0  0  0
 25 26  2  0  0  0  0
 26 27  1  0  0  0  0
 26 28  1  0  0  0  0
 28 29  1  0  0  0  0
 28 30  2  0  0  0  0
M  END
$$$$

 OpenBabel12191814062D

 30 32  0  0  0  0  0  0  0  0999 V2000
    6.4302   -2.8875    0.0000 C   0  0  0  0  0  0  0  0  0  0  0  0
    5.7158   -3.3000    0.0000 C   0  0  0  0  0  0  0  0  0  0  0  0
    5.0013   -2.8875    0.0000 C   0  0  0  0  0  0  0  0  0  0  0  0
    4.2868   -3.3000    0.0000 C   0  0  0  0  0  0  0  0  0  0  0  0
    3.5724   -2.8875    0.0000 C   0  0  0  0  0  0  0  0  0  0  0  0
    2.8579   -3.3000    0.0000 O   0  0  0  0  0  0  0  0  0  0  0  0
    2.1434   -2.8875    0.0000 C   0  0  0  0  0  0  0  0  0  0  0  0
    1.4289   -3.3000    0.0000 C   0  0  0  0  0  0  0  0  0  0  0  0
    0.7145   -2.8875    0.0000 C   0  0  0  0  0  0  0  0  0  0  0  0
    0.0000   -3.3000    0.0000 O   0  0  0  0  0  0  0  0  0  0  0  0
   -0.7145   -2.8875    0.0000 C   0  0  0  0  0  0  0  0  0  0  0  0
   -0.7145   -2.0625    0.0000 C   0  0  0  0  0  0  0  0  0  0  0  0
    0.0000   -1.6500    0.0000 C   0  0  0  0  0  0  0  0  0  0  0  0
    0.0000   -0.8250    0.0000 O   0  0  0  0  0  0  0  0  0  0  0  0
    0.7145   -2.0625    0.0000 C   0  0  0  0  0  0  0  0  0  0  0  0
    1.4289   -1.6500    0.0000 C   0  0  0  0  0  0  0  0  0  0  0  0
    1.4289   -0.8250    0.0000 O   0  0  0  0  0  0  0  0  0  0  0  0
    2.1434   -2.0625    0.0000 C   0  0  0  0  0  0  0  0  0  0  0  0
    2.8579   -1.6500    0.0000 O   0  0  0  0  0  0  0  0  0  0  0  0
    3.5724   -2.0625    0.0000 C   0  0  0  0  0  0  0  0  0  0  0  0
    4.2868   -1.6500    0.0000 C   0  0  0  0  0  0  0  0  0  0  0  0
    5.0013   -2.0625    0.0000 C   0  0  0  0  0  0  0  0  0  0  0  0
    5.7158   -1.6500    0.0000 C   0  0  0  0  0  0  0  0  0  0  0  0
    6.4302   -2.0625    0.0000 C   0  0  0  0  0  0  0  0  0  0  0  0
   -1.4289   -3.3000    0.0000 C   0  0  0  0  0  0  0  0  0  0  0  0
   -1.4289   -4.1250    0.0000 C   0  0  0  0  0  0  0  0  0  0  0  0
   -2.1434   -4.5375    0.0000 C   0  0  0  0  0  0  0  0  0  0  0  0
   -2.8579   -4.1250    0.0000 C   0  0  0  0  0  0  0  0  0  0  0  0
   -2.8579   -3.3000    0.0000 C   0  0  0  0  0  0  0  0  0  0  0  0
   -2.1434   -2.8875    0.0000 C   0  0  0  0  0  0  0  0  0  0  0  0
  1  2  1  0  0  0  0
  2  3  1  0  0  0  0
  3  4  1  0  0  0  0
  4  5  1  0  0  0  0
  5  6  1  0  0  0  0
  6  7  1  0  0  0  0
  7  8  2  0  0  0  0
  7 18  1  0  0  0  0
  8  9  1  0  0  0  0
  9 10  1  0  0  0  0
  9 15  2  0  0  0  0
 10 11  1  0  0  0  0
 11 12  2  0  0  0  0
 11 25  1  0  0  0  0
 12 13  1  0  0  0  0
 13 14  2  0  0  0  0
 13 15  1  0  0  0  0
 15 16  1  0  0  0  0
 16 17  1  0  0  0  0
 16 18  2  0  0  0  0
 18 19  1  0  0  0  0
 19 20  1  0  0  0  0
 20 21  1  0  0  0  0
 21 22  1  0  0  0  0
 22 23  1  0  0  0  0
 23 24  1  0  0  0  0
 25 26  2  0  0  0  0
 25 30  1  0  0  0  0
 26 27  1  0  0  0  0
 27 28  2  0  0  0  0
 28 29  1  0  0  0  0
 29 30  2  0  0  0  0
M  END
$$$$

 OpenBabel12191814062D

 31 33  0  0  0  0  0  0  0  0999 V2000
    6.4302   -2.8875    0.0000 C   0  0  0  0  0  0  0  0  0  0  0  0
    5.7158   -3.3000    0.0000 C   0  0  0  0  0  0  0  0  0  0  0  0
    5.0013   -2.8875    0.0000 C   0  0  0  0  0  0  0  0  0  0  0  0
    4.2868   -3.3000    0.0000 C   0  0  0  0  0  0  0  0  0  0  0  0
    3.5724   -2.8875    0.0000 C   0  0  0  0  0  0  0  0  0  0  0  0
    2.8579   -3.3000    0.0000 O   0  0  0  0  0  0  0  0  0  0  0  0
    2.1434   -2.8875    0.0000 C   0  0  0  0  0  0  0  0  0  0  0  0
    1.4289   -3.3000    0.0000 C   0  0  0  0  0  0  0  0  0  0  0  0
    0.7145   -2.8875    0.0000 C   0  0  0  0  0  0  0  0  0  0  0  0
    0.0000   -3.3000    0.0000 O   0  0  0  0  0  0  0  0  0  0  0  0
   -0.7145   -2.8875    0.0000 C   0  0  0  0  0  0  0  0  0  0  0  0
   -0.7145   -2.0625    0.0000 C   0  0  0  0  0  0  0  0  0  0  0  0
    0.0000   -1.6500    0.0000 C   0  0  0  0  0  0  0  0  0  0  0  0
    0.0000   -0.8250    0.0000 O   0  0  0  0  0  0  0  0  0  0  0  0
    0.7145   -2.0625    0.0000 C   0  0  0  0  0  0  0  0  0  0  0  0
    1.4289   -1.6500    0.0000 C   0  0  0  0  0  0  0  0  0  0  0  0
    1.4289   -0.8250    0.0000 O   0  0  0  0  0  0  0  0  0  0  0  0
    2.1434   -0.4125    0.0000 C   0  0  0  0  0  0  0  0  0  0  0  0
    2.1434   -2.0625    0.0000 C   0  0  0  0  0  0  0  0  0  0  0  0
    2.8579   -1.6500    0.0000 O   0  0  0  0  0  0  0  0  0  0  0  0
    3.5724   -2.0625    0.0000 C   0  0  0  0  0  0  0  0  0  0  0  0
    4.2868   -1.6500    0.0000 C   0  0  0  0  0  0  0  0  0  0  0  0
    5.0013   -2.0625    0.0000 C   0  0  0  0  0  0  0  0  0  0  0  0
    5.7158   -1.6500    0.0000 C   0  0  0  0  0  0  0  0  0  0  0  0
    6.4302   -2.0625    0.0000 C   0  0  0  0  0  0  0  0  0  0  0  0
   -1.4289   -3.3000    0.0000 C   0  0  0  0  0  0  0  0  0  0  0  0
   -1.4289   -4.1250    0.0000 C   0  0  0  0  0  0  0  0  0  0  0  0
   -2.1434   -4.5375    0.0000 C   0  0  0  0  0  0  0  0  0  0  0  0
   -2.8579   -4.1250    0.0000 C   0  0  0  0  0  0  0  0  0  0  0  0
   -2.8579   -3.3000    0.0000 C   0  0  0  0  0  0  0  0  0  0  0  0
   -2.1434   -2.8875    0.0000 C   0  0  0  0  0  0  0  0  0  0  0  0
  1  2  1  0  0  0  0
  2  3  1  0  0  0  0
  3  4  1  0  0  0  0
  4  5  1  0  0  0  0
  5  6  1  0  0  0  0
  6  7  1  0  0  0  0
  7  8  2  0  0  0  0
  7 19  1  0  0  0  0
  8  9  1  0  0  0  0
  9 10  1  0  0  0  0
  9 15  2  0  0  0  0
 10 11  1  0  0  0  0
 11 12  2  0  0  0  0
 11 26  1  0  0  0  0
 12 13  1  0  0  0  0
 13 14  2  0  0  0  0
 13 15  1  0  0  0  0
 15 16  1  0  0  0  0
 16 17  1  0  0  0  0
 16 19  2  0  0  0  0
 17 18  1  0  0  0  0
 19 20  1  0  0  0  0
 20 21  1  0  0  0  0
 21 22  1  0  0  0  0
 22 23  1  0  0  0  0
 23 24  1  0  0  0  0
 24 25  1  0  0  0  0
 26 27  2  0  0  0  0
 26 31  1  0  0  0  0
 27 28  1  0  0  0  0
 28 29  2  0  0  0  0
 29 30  1  0  0  0  0
 30 31  2  0  0  0  0
M  END
$$$$

 OpenBabel12191814062D

 36 38  0  0  0  0  0  0  0  0999 V2000
    9.2881   -2.0625    0.0000 C   0  0  0  0  0  0  0  0  0  0  0  0
   10.0026   -1.6500    0.0000 C   0  0  0  0  0  0  0  0  0  0  0  0
   10.7171   -2.0625    0.0000 C   0  0  0  0  0  0  0  0  0  0  0  0
   11.4315   -1.6500    0.0000 C   0  0  0  0  0  0  0  0  0  0  0  0
   12.1460   -2.0625    0.0000 C   0  0  0  0  0  0  0  0  0  0  0  0
   12.8605   -1.6500    0.0000 S   0  0  0  0  0  0  0  0  0  0  0  0
   13.5749   -2.0625    0.0000 C   0  0  3  0  0  0  0  0  0  0  0  0
   14.2894   -1.6500    0.0000 C   0  0  0  0  0  0  0  0  0  0  0  0
   15.0039   -2.0625    0.0000 C   0  0  0  0  0  0  0  0  0  0  0  0
   15.7184   -1.6500    0.0000 C   0  0  0  0  0  0  0  0  0  0  0  0
   16.4328   -2.0625    0.0000 C   0  0  0  0  0  0  0  0  0  0  0  0
   17.1473   -1.6500    0.0000 C   0  0  0  0  0  0  0  0  0  0  0  0
   17.8618   -2.0625    0.0000 N   0  0  0  0  0  0  0  0  0  0  0  0
   18.5762   -1.6500    0.0000 C   0  0  0  0  0  0  0  0  0  0  0  0
   19.2907   -2.0625    0.0000 C   0  0  0  0  0  0  0  0  0  0  0  0
   19.2907   -2.8875    0.0000 C   0  0  0  0  0  0  0  0  0  0  0  0
   20.0052   -3.3000    0.0000 C   0  0  0  0  0  0  0  0  0  0  0  0
   20.0052   -4.1250    0.0000 C   0  0  0  0  0  0  0  0  0  0  0  0
   20.7197   -4.5375    0.0000 O   0  0  0  0  0  0  0  0  0  0  0  0
   21.4341   -4.1250    0.0000 C   0  0  0  0  0  0  0  0  0  0  0  0
   19.2907   -4.5375    0.0000 C   0  0  0  0  0  0  0  0  0  0  0  0
   19.2907   -5.3625    0.0000 O   0  0  0  0  0  0  0  0  0  0  0  0
   18.5762   -5.7750    0.0000 C   0  0  0  0  0  0  0  0  0  0  0  0
   18.5762   -4.1250    0.0000 C   0  0  0  0  0  0  0  0  0  0  0  0
   18.5762   -3.3000    0.0000 C   0  0  0  0  0  0  0  0  0  0  0  0
   17.8618   -2.8875    0.0000 C   0  0  0  0  0  0  0  0  0  0  0  0
   13.5749   -2.8875    0.0000 C   0  0  0  0  0  0  0  0  0  0  0  0
   14.2894   -3.3000    0.0000 C   0  0  0  0  0  0  0  0  0  0  0  0
   14.2894   -4.1250    0.0000 C   0  0  0  0  0  0  0  0  0  0  0  0
   13.5749   -4.5375    0.0000 C   0  0  0  0  0  0  0  0  0  0  0  0
   13.5749   -5.3625    0.0000 O   0  0  0  0  0  0  0  0  0  0  0  0
   12.8605   -5.7750    0.0000 C   0  0  0  0  0  0  0  0  0  0  0  0
   12.8605   -4.1250    0.0000 C   0  0  0  0  0  0  0  0  0  0  0  0
   12.1460   -4.5375    0.0000 O   0  0  0  0  0  0  0  0  0  0  0  0
   11.4315   -4.1250    0.0000 C   0  0  0  0  0  0  0  0  0  0  0  0
   12.8605   -3.3000    0.0000 C   0  0  0  0  0  0  0  0  0  0  0  0
  1  2  1  0  0  0  0
  2  3  1  0  0  0  0
  3  4  1  0  0  0  0
  4  5  1  0  0  0  0
  5  6  1  0  0  0  0
  6  7  1  0  0  0  0
  7  8  1  0  0  0  0
  7 27  1  0  0  0  0
  8  9  1  0  0  0  0
  9 10  1  0  0  0  0
 10 11  1  0  0  0  0
 11 12  1  0  0  0  0
 12 13  1  0  0  0  0
 13 14  1  0  0  0  0
 13 26  1  0  0  0  0
 14 15  1  0  0  0  0
 15 16  1  0  0  0  0
 16 17  2  0  0  0  0
 16 25  1  0  0  0  0
 17 18  1  0  0  0  0
 18 19  1  0  0  0  0
 18 21  2  0  0  0  0
 19 20  1  0  0  0  0
 21 22  1  0  0  0  0
 21 24  1  0  0  0  0
 22 23  1  0  0  0  0
 24 25  2  0  0  0  0
 25 26  1  0  0  0  0
 27 28  2  0  0  0  0
 27 36  1  0  0  0  0
 28 29  1  0  0  0  0
 29 30  2  0  0  0  0
 30 31  1  0  0  0  0
 30 33  1  0  0  0  0
 31 32  1  0  0  0  0
 33 34  1  0  0  0  0
 33 36  2  0  0  0  0
 34 35  1  0  0  0  0
M  END
$$$$

 OpenBabel12191814062D

 40 43  0  0  0  0  0  0  0  0999 V2000
   -1.7216   -6.5720    0.0000 C   0  0  0  0  0  0  0  0  0  0  0  0
   -1.4515   -7.3516    0.0000 C   0  0  0  0  0  0  0  0  0  0  0  0
   -0.6414   -7.5075    0.0000 C   0  0  0  0  0  0  0  0  0  0  0  0
   -0.3713   -8.2871    0.0000 C   0  0  0  0  0  0  0  0  0  0  0  0
    0.4388   -8.4430    0.0000 N   0  0  0  0  0  0  0  0  0  0  0  0
    0.9789   -7.8193    0.0000 C   0  0  0  0  0  0  0  0  0  0  0  0
    1.7890   -7.9752    0.0000 C   0  0  0  0  0  0  0  0  0  0  0  0
    2.3291   -7.3516    0.0000 C   0  0  0  0  0  0  0  0  0  0  0  0
    3.1392   -7.5075    0.0000 C   0  0  0  0  0  0  0  0  0  0  0  0
    0.7088   -9.2225    0.0000 C   0  0  0  0  0  0  0  0  0  0  0  0
    1.5190   -9.3784    0.0000 C   0  0  0  0  0  0  0  0  0  0  0  0
    1.7890  -10.1580    0.0000 C   0  0  0  0  0  0  0  0  0  0  0  0
    1.2489  -10.7816    0.0000 C   0  0  0  0  0  0  0  0  0  0  0  0
    0.4388  -10.6257    0.0000 C   0  0  0  0  0  0  0  0  0  0  0  0
    0.1687   -9.8462    0.0000 C   0  0  0  0  0  0  0  0  0  0  0  0
    1.5190  -11.5612    0.0000 C   0  0  0  0  0  0  0  0  0  0  0  0
    2.3084  -11.8009    0.0000 N   0  0  0  0  0  0  0  0  0  0  0  0
    2.3243  -12.6258    0.0000 C   0  0  0  0  0  0  0  0  0  0  0  0
    1.5447  -12.8958    0.0000 N   0  0  0  0  0  0  0  0  0  0  0  0
    1.0470  -12.2378    0.0000 C   0  0  0  0  0  0  0  0  0  0  0  0
    0.2222  -12.2538    0.0000 C   0  0  0  0  0  0  0  0  0  0  0  0
   -0.1764  -12.9761    0.0000 C   0  0  0  0  0  0  0  0  0  0  0  0
   -1.0013  -12.9920    0.0000 C   0  0  0  0  0  0  0  0  0  0  0  0
   -1.4275  -12.2856    0.0000 C   0  0  0  0  0  0  0  0  0  0  0  0
   -2.2524  -12.3016    0.0000 N   0  0  0  0  0  0  0  0  0  0  0  0
   -2.6786  -11.5952    0.0000 C   0  0  0  0  0  0  0  0  0  0  0  0
   -1.0289  -11.5633    0.0000 C   0  0  0  0  0  0  0  0  0  0  0  0
   -0.2040  -11.5474    0.0000 C   0  0  0  0  0  0  0  0  0  0  0  0
    3.0010  -13.0977    0.0000 C   0  0  0  0  0  0  0  0  0  0  0  0
    3.7480  -12.7476    0.0000 C   0  0  0  0  0  0  0  0  0  0  0  0
    4.4247  -13.2196    0.0000 C   0  0  0  0  0  0  0  0  0  0  0  0
    4.3543  -14.0416    0.0000 C   0  0  0  0  0  0  0  0  0  0  0  0
    5.0310  -14.5135    0.0000 C   0  0  0  0  0  0  0  0  0  0  0  0
    4.9606  -15.3355    0.0000 C   0  0  0  0  0  0  0  0  0  0  0  0
    5.6373  -15.8075    0.0000 C   0  0  0  0  0  0  0  0  0  0  0  0
    6.3844  -15.4574    0.0000 O   0  0  0  0  0  0  0  0  0  0  0  0
    5.5669  -16.6295    0.0000 O   0  0  0  0  0  0  0  0  0  0  0  0
    6.2436  -17.1014    0.0000 C   0  0  0  0  0  0  0  0  0  0  0  0
    3.6073  -14.3916    0.0000 C   0  0  0  0  0  0  0  0  0  0  0  0
    2.9306  -13.9197    0.0000 C   0  0  0  0  0  0  0  0  0  0  0  0
  1  2  1  0  0  0  0
  2  3  1  0  0  0  0
  3  4  1  0  0  0  0
  4  5  1  0  0  0  0
  5  6  1  0  0  0  0
  5 10  1  0  0  0  0
  6  7  1  0  0  0  0
  7  8  1  0  0  0  0
  8  9  1  0  0  0  0
 10 11  2  0  0  0  0
 10 15  1  0  0  0  0
 11 12  1  0  0  0  0
 12 13  2  0  0  0  0
 13 14  1  0  0  0  0
 13 16  1  0  0  0  0
 14 15  2  0  0  0  0
 16 17  1  0  0  0  0
 16 20  2  0  0  0  0
 17 18  1  0  0  0  0
 18 19  2  0  0  0  0
 18 29  1  0  0  0  0
 19 20  1  0  0  0  0
 20 21  1  0  0  0  0
 21 22  2  0  0  0  0
 21 28  1  0  0  0  0
 22 23  1  0  0  0  0
 23 24  2  0  0  0  0
 24 25  1  0  0  0  0
 24 27  1  0  0  0  0
 25 26  1  0  0  0  0
 27 28  2  0  0  0  0
 29 30  2  0  0  0  0
 29 40  1  0  0  0  0
 30 31  1  0  0  0  0
 31 32  2  0  0  0  0
 32 33  1  0  0  0  0
 32 39  1  0  0  0  0
 33 34  2  0  0  0  0
 34 35  1  0  0  0  0
 35 36  2  0  0  0  0
 35 37  1  0  0  0  0
 37 38  1  0  0  0  0
 39 40  2  0  0  0  0
M  END
$$$$

 OpenBabel12191814062D

 24 25  0  0  0  0  0  0  0  0999 V2000
    1.5077   -2.1177    0.0000 C   0  0  0  0  0  0  0  0  0  0  0  0
    2.3178   -2.2736    0.0000 C   0  0  0  0  0  0  0  0  0  0  0  0
    2.8579   -1.6500    0.0000 C   0  0  0  0  0  0  0  0  0  0  0  0
    3.6680   -1.8059    0.0000 C   0  0  0  0  0  0  0  0  0  0  0  0
    4.2081   -1.1823    0.0000 N   0  0  0  0  0  0  0  0  0  0  0  0
    5.0182   -1.3382    0.0000 C   0  0  0  0  0  0  0  0  0  0  0  0
    5.2883   -2.1177    0.0000 C   0  0  0  0  0  0  0  0  0  0  0  0
    6.0984   -2.2736    0.0000 N   0  0  0  0  0  0  0  0  0  0  0  0
    6.3685   -3.0532    0.0000 C   0  0  0  0  0  0  0  0  0  0  0  0
    7.1786   -3.2091    0.0000 C   0  0  0  0  0  0  0  0  0  0  0  0
    6.6385   -1.6500    0.0000 C   0  0  0  0  0  0  0  0  0  0  0  0
    7.4486   -1.8059    0.0000 C   0  0  0  0  0  0  0  0  0  0  0  0
    3.9381   -0.4027    0.0000 C   0  0  0  0  0  0  0  0  0  0  0  0
    4.4782    0.2209    0.0000 O   0  0  0  0  0  0  0  0  0  0  0  0
    3.1279   -0.2468    0.0000 C   0  0  0  0  0  0  0  0  0  0  0  0
    2.5878   -0.8704    0.0000 C   0  0  0  0  0  0  0  0  0  0  0  0
    1.7777   -0.7145    0.0000 C   0  0  0  0  0  0  0  0  0  0  0  0
    1.5077    0.0650    0.0000 C   0  0  0  0  0  0  0  0  0  0  0  0
    2.0477    0.6887    0.0000 C   0  0  0  0  0  0  0  0  0  0  0  0
    1.7777    1.4682    0.0000 C   0  0  0  0  0  0  0  0  0  0  0  0
    2.3178    2.0918    0.0000 C   0  0  0  0  0  0  0  0  0  0  0  0
    3.1279    1.9359    0.0000 C   0  0  0  0  0  0  0  0  0  0  0  0
    3.3980    1.1564    0.0000 C   0  0  0  0  0  0  0  0  0  0  0  0
    2.8579    0.5327    0.0000 C   0  0  0  0  0  0  0  0  0  0  0  0
  1  2  1  0  0  0  0
  2  3  1  0  0  0  0
  3  4  1  0  0  0  0
  4  5  1  0  0  0  0
  5  6  1  0  0  0  0
  5 13  1  0  0  0  0
  6  7  1  0  0  0  0
  7  8  1  0  0  0  0
  8  9  1  0  0  0  0
  8 11  1  0  0  0  0
  9 10  1  0  0  0  0
 11 12  1  0  0  0  0
 13 14  2  0  0  0  0
 13 15  1  0  0  0  0
 15 16  2  0  0  0  0
 15 24  1  0  0  0  0
 16 17  1  0  0  0  0
 17 18  2  0  0  0  0
 18 19  1  0  0  0  0
 19 20  2  0  0  0  0
 19 24  1  0  0  0  0
 20 21  1  0  0  0  0
 21 22  2  0  0  0  0
 22 23  1  0  0  0  0
 23 24  2  0  0  0  0
M  END
$$$$

 OpenBabel12191814062D

 32 34  0  0  0  0  0  0  0  0999 V2000
    2.7768   -5.9570    0.0000 C   0  0  0  0  0  0  0  0  0  0  0  0
    3.4912   -5.5445    0.0000 C   0  0  0  0  0  0  0  0  0  0  0  0
    4.2057   -5.9570    0.0000 C   0  0  0  0  0  0  0  0  0  0  0  0
    4.9202   -5.5445    0.0000 C   0  0  0  0  0  0  0  0  0  0  0  0
    5.6346   -5.9570    0.0000 N   0  0  0  0  0  0  0  0  0  0  0  0
    6.3491   -5.5445    0.0000 C   0  0  0  0  0  0  0  0  0  0  0  0
    7.0636   -5.9570    0.0000 C   0  0  3  0  0  0  0  0  0  0  0  0
    7.0636   -6.7820    0.0000 O   0  0  0  0  0  0  0  0  0  0  0  0
    7.7781   -5.5445    0.0000 C   0  0  0  0  0  0  0  0  0  0  0  0
    7.7781   -4.7195    0.0000 N   0  0  0  0  0  0  0  0  0  0  0  0
    7.1106   -4.2346    0.0000 C   0  0  0  0  0  0  0  0  0  0  0  0
    6.3260   -4.4895    0.0000 C   0  0  0  0  0  0  0  0  0  0  0  0
    7.3656   -3.4500    0.0000 C   0  0  0  0  0  0  0  0  0  0  0  0
    6.8806   -2.7825    0.0000 C   0  0  0  0  0  0  0  0  0  0  0  0
    6.0602   -2.8687    0.0000 O   0  0  0  0  0  0  0  0  0  0  0  0
    7.2162   -2.0288    0.0000 C   0  0  0  0  0  0  0  0  0  0  0  0
    8.0367   -1.9426    0.0000 C   0  0  0  0  0  0  0  0  0  0  0  0
    8.3722   -1.1889    0.0000 C   0  0  0  0  0  0  0  0  0  0  0  0
    7.8873   -0.5215    0.0000 C   0  0  0  0  0  0  0  0  0  0  0  0
    8.2229    0.2322    0.0000 C   0  0  0  0  0  0  0  0  0  0  0  0
    9.0433    0.3184    0.0000 C   0  0  0  0  0  0  0  0  0  0  0  0
    9.5283   -0.3490    0.0000 C   0  0  0  0  0  0  0  0  0  0  0  0
    9.1927   -1.1027    0.0000 C   0  0  0  0  0  0  0  0  0  0  0  0
    8.1906   -3.4500    0.0000 C   0  0  0  0  0  0  0  0  0  0  0  0
    8.6755   -2.7825    0.0000 O   0  0  0  0  0  0  0  0  0  0  0  0
    8.4455   -4.2346    0.0000 N   0  0  0  0  0  0  0  0  0  0  0  0
    9.2301   -4.4895    0.0000 C   0  0  0  0  0  0  0  0  0  0  0  0
    9.8432   -3.9375    0.0000 C   0  0  0  0  0  0  0  0  0  0  0  0
   10.6278   -4.1924    0.0000 C   0  0  0  0  0  0  0  0  0  0  0  0
   10.7994   -4.9994    0.0000 C   0  0  0  0  0  0  0  0  0  0  0  0
   10.1863   -5.5514    0.0000 C   0  0  0  0  0  0  0  0  0  0  0  0
    9.4016   -5.2965    0.0000 C   0  0  0  0  0  0  0  0  0  0  0  0
  1  2  1  0  0  0  0
  2  3  1  0  0  0  0
  3  4  1  0  0  0  0
  4  5  1  0  0  0  0
  5  6  1  0  0  0  0
  6  7  1  0  0  0  0
  7  8  1  0  0  0  0
  7  9  1  0  0  0  0
  9 10  1  0  0  0  0
 10 11  1  0  0  0  0
 10 26  1  0  0  0  0
 11 12  1  0  0  0  0
 11 13  2  0  0  0  0
 13 14  1  0  0  0  0
 13 24  1  0  0  0  0
 14 15  2  0  0  0  0
 14 16  1  0  0  0  0
 16 17  1  0  0  0  0
 17 18  1  0  0  0  0
 18 19  2  0  0  0  0
 18 23  1  0  0  0  0
 19 20  1  0  0  0  0
 20 21  2  0  0  0  0
 21 22  1  0  0  0  0
 22 23  2  0  0  0  0
 24 25  2  0  0  0  0
 24 26  1  0  0  0  0
 26 27  1  0  0  0  0
 27 28  2  0  0  0  0
 27 32  1  0  0  0  0
 28 29  1  0  0  0  0
 29 30  2  0  0  0  0
 30 31  1  0  0  0  0
 31 32  2  0  0  0  0
M  END
$$$$

 OpenBabel12191814062D

 37 40  0  0  0  0  0  0  0  0999 V2000
   -2.8003   -9.8526    0.0000 C   0  0  0  0  0  0  0  0  0  0  0  0
   -2.0858   -9.4401    0.0000 C   0  0  0  0  0  0  0  0  0  0  0  0
   -1.3713   -9.8526    0.0000 C   0  0  0  0  0  0  0  0  0  0  0  0
   -0.6569   -9.4401    0.0000 C   0  0  0  0  0  0  0  0  0  0  0  0
    0.0576   -9.8526    0.0000 O   0  0  0  0  0  0  0  0  0  0  0  0
    0.7721   -9.4401    0.0000 C   0  0  0  0  0  0  0  0  0  0  0  0
    1.4865   -9.8526    0.0000 C   0  0  0  0  0  0  0  0  0  0  0  0
    2.2010   -9.4401    0.0000 C   0  0  0  0  0  0  0  0  0  0  0  0
    2.9155   -9.8526    0.0000 C   0  0  0  0  0  0  0  0  0  0  0  0
    3.6300   -9.4401    0.0000 C   0  0  0  0  0  0  0  0  0  0  0  0
    4.3444   -9.8526    0.0000 C   0  0  0  0  0  0  0  0  0  0  0  0
    4.3444  -10.6776    0.0000 C   0  0  0  0  0  0  0  0  0  0  0  0
    3.6300  -11.0901    0.0000 C   0  0  0  0  0  0  0  0  0  0  0  0
    2.9155  -10.6776    0.0000 C   0  0  0  0  0  0  0  0  0  0  0  0
    5.0589  -11.0901    0.0000 C   0  0  0  0  0  0  0  0  0  0  0  0
    5.8126  -10.7546    0.0000 N   0  0  0  0  0  0  0  0  0  0  0  0
    6.3646  -11.3677    0.0000 C   0  0  0  0  0  0  0  0  0  0  0  0
    5.9521  -12.0822    0.0000 C   0  0  0  0  0  0  0  0  0  0  0  0
    5.1451  -11.9106    0.0000 N   0  0  0  0  0  0  0  0  0  0  0  0
    6.2877  -12.8358    0.0000 C   0  0  0  0  0  0  0  0  0  0  0  0
    7.1081  -12.9221    0.0000 C   0  0  0  0  0  0  0  0  0  0  0  0
    7.4437  -13.6757    0.0000 C   0  0  0  0  0  0  0  0  0  0  0  0
    6.9588  -14.3432    0.0000 C   0  0  0  0  0  0  0  0  0  0  0  0
    6.1383  -14.2569    0.0000 C   0  0  0  0  0  0  0  0  0  0  0  0
    5.8027  -13.5033    0.0000 C   0  0  0  0  0  0  0  0  0  0  0  0
    7.2943  -15.0969    0.0000 N   0  0  0  0  0  0  0  0  0  0  0  0
    8.1148  -15.1831    0.0000 C   0  0  0  0  0  0  0  0  0  0  0  0
    6.8094  -15.7643    0.0000 C   0  0  0  0  0  0  0  0  0  0  0  0
    7.1851  -11.2814    0.0000 C   0  0  0  0  0  0  0  0  0  0  0  0
    7.5206  -10.5278    0.0000 C   0  0  0  0  0  0  0  0  0  0  0  0
    8.3411  -10.4415    0.0000 C   0  0  0  0  0  0  0  0  0  0  0  0
    8.8260  -11.1090    0.0000 C   0  0  0  0  0  0  0  0  0  0  0  0
    8.4905  -11.8626    0.0000 C   0  0  0  0  0  0  0  0  0  0  0  0
    7.6700  -11.9489    0.0000 C   0  0  0  0  0  0  0  0  0  0  0  0
    9.6465  -11.0227    0.0000 N   0  0  0  0  0  0  0  0  0  0  0  0
   10.1314  -11.6902    0.0000 C   0  0  0  0  0  0  0  0  0  0  0  0
    9.9821  -10.2691    0.0000 C   0  0  0  0  0  0  0  0  0  0  0  0
  1  2  1  0  0  0  0
  2  3  1  0  0  0  0
  3  4  1  0  0  0  0
  4  5  1  0  0  0  0
  5  6  1  0  0  0  0
  6  7  1  0  0  0  0
  7  8  2  0  0  0  0
  8  9  1  0  0  0  0
  9 10  2  0  0  0  0
  9 14  1  0  0  0  0
 10 11  1  0  0  0  0
 11 12  2  0  0  0  0
 12 13  1  0  0  0  0
 12 15  1  0  0  0  0
 13 14  2  0  0  0  0
 15 16  1  0  0  0  0
 15 19  2  0  0  0  0
 16 17  1  0  0  0  0
 17 18  2  0  0  0  0
 17 29  1  0  0  0  0
 18 19  1  0  0  0  0
 18 20  1  0  0  0  0
 20 21  2  0  0  0  0
 20 25  1  0  0  0  0
 21 22  1  0  0  0  0
 22 23  2  0  0  0  0
 23 24  1  0  0  0  0
 23 26  1  0  0  0  0
 24 25  2  0  0  0  0
 26 27  1  0  0  0  0
 26 28  1  0  0  0  0
 29 30  2  0  0  0  0
 29 34  1  0  0  0  0
 30 31  1  0  0  0  0
 31 32  2  0  0  0  0
 32 33  1  0  0  0  0
 32 35  1  0  0  0  0
 33 34  2  0  0  0  0
 35 36  1  0  0  0  0
 35 37  1  0  0  0  0
M  END
$$$$

 OpenBabel12191814062D

 25 26  0  0  0  0  0  0  0  0999 V2000
   -6.0770    2.3349    0.0000 C   0  0  0  0  0  0  0  0  0  0  0  0
   -5.6645    1.6204    0.0000 C   0  0  0  0  0  0  0  0  0  0  0  0
   -4.8395    1.6204    0.0000 C   0  0  0  0  0  0  0  0  0  0  0  0
   -4.4270    0.9059    0.0000 C   0  0  0  0  0  0  0  0  0  0  0  0
   -3.6020    0.9059    0.0000 O   0  0  0  0  0  0  0  0  0  0  0  0
   -3.1895    0.1914    0.0000 C   0  0  0  0  0  0  0  0  0  0  0  0
   -2.3645    0.1914    0.0000 C   0  0  0  0  0  0  0  0  0  0  0  0
   -1.9520   -0.5230    0.0000 C   0  0  0  0  0  0  0  0  0  0  0  0
   -1.1270   -0.5230    0.0000 C   0  0  0  0  0  0  0  0  0  0  0  0
   -0.7145    0.1914    0.0000 O   0  0  0  0  0  0  0  0  0  0  0  0
   -0.7145   -1.2375    0.0000 N   0  0  0  0  0  0  0  0  0  0  0  0
    0.1105   -1.2375    0.0000 C   0  0  0  0  0  0  0  0  0  0  0  0
    0.5230   -1.9520    0.0000 C   0  0  0  0  0  0  0  0  0  0  0  0
    1.3480   -1.9520    0.0000 N   0  0  0  0  0  0  0  0  0  0  0  0
    1.7605   -2.6664    0.0000 C   0  0  0  0  0  0  0  0  0  0  0  0
    2.5855   -2.6664    0.0000 C   0  0  0  0  0  0  0  0  0  0  0  0
    1.7605   -1.2375    0.0000 C   0  0  0  0  0  0  0  0  0  0  0  0
    2.5855   -1.2375    0.0000 C   0  0  0  0  0  0  0  0  0  0  0  0
   -2.3645   -1.2375    0.0000 C   0  0  0  0  0  0  0  0  0  0  0  0
   -1.9520   -1.9520    0.0000 C   0  0  0  0  0  0  0  0  0  0  0  0
   -2.3645   -2.6664    0.0000 C   0  0  0  0  0  0  0  0  0  0  0  0
   -3.1895   -2.6664    0.0000 C   0  0  0  0  0  0  0  0  0  0  0  0
   -3.6020   -1.9520    0.0000 C   0  0  0  0  0  0  0  0  0  0  0  0
   -3.1895   -1.2375    0.0000 C   0  0  0  0  0  0  0  0  0  0  0  0
   -3.6020   -0.5230    0.0000 N   0  0  0  0  0  0  0  0  0  0  0  0
  1  2  1  0  0  0  0
  2  3  1  0  0  0  0
  3  4  1  0  0  0  0
  4  5  1  0  0  0  0
  5  6  1  0  0  0  0
  6  7  2  0  0  0  0
  6 25  1  0  0  0  0
  7  8  1  0  0  0  0
  8  9  1  0  0  0  0
  8 19  2  0  0  0  0
  9 10  2  0  0  0  0
  9 11  1  0  0  0  0
 11 12  1  0  0  0  0
 12 13  1  0  0  0  0
 13 14  1  0  0  0  0
 14 15  1  0  0  0  0
 14 17  1  0  0  0  0
 15 16  1  0  0  0  0
 17 18  1  0  0  0  0
 19 20  1  0  0  0  0
 19 24  1  0  0  0  0
 20 21  2  0  0  0  0
 21 22  1  0  0  0  0
 22 23  2  0  0  0  0
 23 24  1  0  0  0  0
 24 25  2  0  0  0  0
M  END
$$$$

 OpenBabel12191814062D

 28 30  0  0  0  0  0  0  0  0999 V2000
    5.0013   -3.7125    0.0000 C   0  0  0  0  0  0  0  0  0  0  0  0
    4.2868   -3.3000    0.0000 C   0  0  0  0  0  0  0  0  0  0  0  0
    3.5724   -3.7125    0.0000 C   0  0  0  0  0  0  0  0  0  0  0  0
    2.8579   -3.3000    0.0000 C   0  0  0  0  0  0  0  0  0  0  0  0
    2.1434   -3.7125    0.0000 O   0  0  0  0  0  0  0  0  0  0  0  0
    1.4289   -3.3000    0.0000 C   0  0  0  0  0  0  0  0  0  0  0  0
    0.7145   -3.7125    0.0000 C   0  0  0  0  0  0  0  0  0  0  0  0
    0.0000   -3.3000    0.0000 C   0  0  0  0  0  0  0  0  0  0  0  0
   -0.7145   -3.7125    0.0000 O   0  0  0  0  0  0  0  0  0  0  0  0
   -1.4289   -3.3000    0.0000 C   0  0  0  0  0  0  0  0  0  0  0  0
   -1.4289   -2.4750    0.0000 C   0  0  0  0  0  0  0  0  0  0  0  0
   -0.7145   -2.0625    0.0000 C   0  0  0  0  0  0  0  0  0  0  0  0
   -0.7145   -1.2375    0.0000 O   0  0  0  0  0  0  0  0  0  0  0  0
    0.0000   -2.4750    0.0000 C   0  0  0  0  0  0  0  0  0  0  0  0
    0.7145   -2.0625    0.0000 C   0  0  0  0  0  0  0  0  0  0  0  0
    0.7145   -1.2375    0.0000 O   0  0  0  0  0  0  0  0  0  0  0  0
    1.4289   -2.4750    0.0000 C   0  0  0  0  0  0  0  0  0  0  0  0
    2.1434   -2.0625    0.0000 O   0  0  0  0  0  0  0  0  0  0  0  0
    2.8579   -2.4750    0.0000 C   0  0  0  0  0  0  0  0  0  0  0  0
    3.5724   -2.0625    0.0000 C   0  0  0  0  0  0  0  0  0  0  0  0
    4.2868   -2.4750    0.0000 C   0  0  0  0  0  0  0  0  0  0  0  0
    5.0013   -2.0625    0.0000 C   0  0  0  0  0  0  0  0  0  0  0  0
   -2.1434   -3.7125    0.0000 C   0  0  0  0  0  0  0  0  0  0  0  0
   -2.1434   -4.5375    0.0000 C   0  0  0  0  0  0  0  0  0  0  0  0
   -2.8579   -4.9500    0.0000 C   0  0  0  0  0  0  0  0  0  0  0  0
   -3.5724   -4.5375    0.0000 C   0  0  0  0  0  0  0  0  0  0  0  0
   -3.5724   -3.7125    0.0000 C   0  0  0  0  0  0  0  0  0  0  0  0
   -2.8579   -3.3000    0.0000 C   0  0  0  0  0  0  0  0  0  0  0  0
  1  2  1  0  0  0  0
  2  3  1  0  0  0  0
  3  4  1  0  0  0  0
  4  5  1  0  0  0  0
  5  6  1  0  0  0  0
  6  7  2  0  0  0  0
  6 17  1  0  0  0  0
  7  8  1  0  0  0  0
  8  9  1  0  0  0  0
  8 14  2  0  0  0  0
  9 10  1  0  0  0  0
 10 11  2  0  0  0  0
 10 23  1  0  0  0  0
 11 12  1  0  0  0  0
 12 13  2  0  0  0  0
 12 14  1  0  0  0  0
 14 15  1  0  0  0  0
 15 16  1  0  0  0  0
 15 17  2  0  0  0  0
 17 18  1  0  0  0  0
 18 19  1  0  0  0  0
 19 20  1  0  0  0  0
 20 21  1  0  0  0  0
 21 22  1  0  0  0  0
 23 24  2  0  0  0  0
 23 28  1  0  0  0  0
 24 25  1  0  0  0  0
 25 26  2  0  0  0  0
 26 27  1  0  0  0  0
 27 28  2  0  0  0  0
M  END
$$$$

 OpenBabel12191814062D

 29 31  0  0  0  0  0  0  0  0999 V2000
    5.0013   -3.7125    0.0000 C   0  0  0  0  0  0  0  0  0  0  0  0
    4.2868   -3.3000    0.0000 C   0  0  0  0  0  0  0  0  0  0  0  0
    3.5724   -3.7125    0.0000 C   0  0  0  0  0  0  0  0  0  0  0  0
    2.8579   -3.3000    0.0000 C   0  0  0  0  0  0  0  0  0  0  0  0
    2.1434   -3.7125    0.0000 O   0  0  0  0  0  0  0  0  0  0  0  0
    1.4289   -3.3000    0.0000 C   0  0  0  0  0  0  0  0  0  0  0  0
    0.7145   -3.7125    0.0000 C   0  0  0  0  0  0  0  0  0  0  0  0
    0.0000   -3.3000    0.0000 C   0  0  0  0  0  0  0  0  0  0  0  0
   -0.7145   -3.7125    0.0000 O   0  0  0  0  0  0  0  0  0  0  0  0
   -1.4289   -3.3000    0.0000 C   0  0  0  0  0  0  0  0  0  0  0  0
   -1.4289   -2.4750    0.0000 C   0  0  0  0  0  0  0  0  0  0  0  0
   -0.7145   -2.0625    0.0000 C   0  0  0  0  0  0  0  0  0  0  0  0
   -0.7145   -1.2375    0.0000 O   0  0  0  0  0  0  0  0  0  0  0  0
    0.0000   -2.4750    0.0000 C   0  0  0  0  0  0  0  0  0  0  0  0
    0.7145   -2.0625    0.0000 C   0  0  0  0  0  0  0  0  0  0  0  0
    0.7145   -1.2375    0.0000 O   0  0  0  0  0  0  0  0  0  0  0  0
    1.4289   -0.8250    0.0000 C   0  0  0  0  0  0  0  0  0  0  0  0
    1.4289   -2.4750    0.0000 C   0  0  0  0  0  0  0  0  0  0  0  0
    2.1434   -2.0625    0.0000 O   0  0  0  0  0  0  0  0  0  0  0  0
    2.8579   -2.4750    0.0000 C   0  0  0  0  0  0  0  0  0  0  0  0
    3.5724   -2.0625    0.0000 C   0  0  0  0  0  0  0  0  0  0  0  0
    4.2868   -2.4750    0.0000 C   0  0  0  0  0  0  0  0  0  0  0  0
    5.0013   -2.0625    0.0000 C   0  0  0  0  0  0  0  0  0  0  0  0
   -2.1434   -3.7125    0.0000 C   0  0  0  0  0  0  0  0  0  0  0  0
   -2.1434   -4.5375    0.0000 C   0  0  0  0  0  0  0  0  0  0  0  0
   -2.8579   -4.9500    0.0000 C   0  0  0  0  0  0  0  0  0  0  0  0
   -3.5724   -4.5375    0.0000 C   0  0  0  0  0  0  0  0  0  0  0  0
   -3.5724   -3.7125    0.0000 C   0  0  0  0  0  0  0  0  0  0  0  0
   -2.8579   -3.3000    0.0000 C   0  0  0  0  0  0  0  0  0  0  0  0
  1  2  1  0  0  0  0
  2  3  1  0  0  0  0
  3  4  1  0  0  0  0
  4  5  1  0  0  0  0
  5  6  1  0  0  0  0
  6  7  2  0  0  0  0
  6 18  1  0  0  0  0
  7  8  1  0  0  0  0
  8  9  1  0  0  0  0
  8 14  2  0  0  0  0
  9 10  1  0  0  0  0
 10 11  2  0  0  0  0
 10 24  1  0  0  0  0
 11 12  1  0  0  0  0
 12 13  2  0  0  0  0
 12 14  1  0  0  0  0
 14 15  1  0  0  0  0
 15 16  1  0  0  0  0
 15 18  2  0  0  0  0
 16 17  1  0  0  0  0
 18 19  1  0  0  0  0
 19 20  1  0  0  0  0
 20 21  1  0  0  0  0
 21 22  1  0  0  0  0
 22 23  1  0  0  0  0
 24 25  2  0  0  0  0
 24 29  1  0  0  0  0
 25 26  1  0  0  0  0
 26 27  2  0  0  0  0
 27 28  1  0  0  0  0
 28 29  2  0  0  0  0
M  END
$$$$

 OpenBabel12191814062D

 37 40  0  0  0  0  0  0  0  0999 V2000
    9.0681    6.0604    0.0000 C   0  0  0  0  0  0  0  0  0  0  0  0
    8.3536    5.6479    0.0000 C   0  0  0  0  0  0  0  0  0  0  0  0
    8.3536    4.8229    0.0000 C   0  0  0  0  0  0  0  0  0  0  0  0
    7.6391    4.4104    0.0000 C   0  0  0  0  0  0  0  0  0  0  0  0
    7.6391    3.5854    0.0000 O   0  0  0  0  0  0  0  0  0  0  0  0
    6.9246    3.1729    0.0000 C   0  0  0  0  0  0  0  0  0  0  0  0
    6.9246    2.3479    0.0000 C   0  0  0  0  0  0  0  0  0  0  0  0
    6.2102    1.9354    0.0000 C   0  0  0  0  0  0  0  0  0  0  0  0
    5.4957    2.3479    0.0000 C   0  0  0  0  0  0  0  0  0  0  0  0
    5.4957    3.1729    0.0000 C   0  0  0  0  0  0  0  0  0  0  0  0
    6.2102    3.5854    0.0000 C   0  0  0  0  0  0  0  0  0  0  0  0
    4.7812    1.9354    0.0000 C   0  0  0  0  0  0  0  0  0  0  0  0
    4.7812    1.1104    0.0000 O   0  0  0  0  0  0  0  0  0  0  0  0
    4.0668    2.3479    0.0000 N   0  0  0  0  0  0  0  0  0  0  0  0
    3.3523    1.9354    0.0000 C   0  0  0  0  0  0  0  0  0  0  0  0
    3.3523    1.1104    0.0000 C   0  0  0  0  0  0  0  0  0  0  0  0
    2.6378    0.6979    0.0000 C   0  0  0  0  0  0  0  0  0  0  0  0
    1.9233    1.1104    0.0000 C   0  0  0  0  0  0  0  0  0  0  0  0
    1.1387    0.8555    0.0000 N   0  0  0  0  0  0  0  0  0  0  0  0
    0.6538    1.5229    0.0000 C   0  0  0  0  0  0  0  0  0  0  0  0
   -0.1712    1.5229    0.0000 S   0  0  0  0  0  0  0  0  0  0  0  0
   -0.5837    0.8085    0.0000 C   0  0  0  0  0  0  0  0  0  0  0  0
   -1.4087    0.8085    0.0000 C   0  0  0  0  0  0  0  0  0  0  0  0
   -1.8212    0.0940    0.0000 C   0  0  0  0  0  0  0  0  0  0  0  0
   -1.4087   -0.6205    0.0000 C   0  0  0  0  0  0  0  0  0  0  0  0
   -2.6462    0.0940    0.0000 C   0  0  0  0  0  0  0  0  0  0  0  0
   -3.0587    0.8085    0.0000 C   0  0  0  0  0  0  0  0  0  0  0  0
   -3.8837    0.8085    0.0000 C   0  0  0  0  0  0  0  0  0  0  0  0
   -2.6462    1.5229    0.0000 C   0  0  0  0  0  0  0  0  0  0  0  0
   -3.0587    2.2374    0.0000 C   0  0  0  0  0  0  0  0  0  0  0  0
   -2.6462    2.9519    0.0000 C   0  0  0  0  0  0  0  0  0  0  0  0
   -3.8837    2.2374    0.0000 O   0  0  0  0  0  0  0  0  0  0  0  0
   -1.8212    1.5229    0.0000 C   0  0  0  0  0  0  0  0  0  0  0  0
   -1.4087    2.2374    0.0000 C   0  0  0  0  0  0  0  0  0  0  0  0
    1.1387    2.1904    0.0000 S   0  0  0  0  0  0  0  0  0  0  0  0
    1.9233    1.9354    0.0000 C   0  0  0  0  0  0  0  0  0  0  0  0
    2.6378    2.3479    0.0000 C   0  0  0  0  0  0  0  0  0  0  0  0
  1  2  1  0  0  0  0
  2  3  1  0  0  0  0
  3  4  1  0  0  0  0
  4  5  1  0  0  0  0
  5  6  1  0  0  0  0
  6  7  2  0  0  0  0
  6 11  1  0  0  0  0
  7  8  1  0  0  0  0
  8  9  2  0  0  0  0
  9 10  1  0  0  0  0
  9 12  1  0  0  0  0
 10 11  2  0  0  0  0
 12 13  2  0  0  0  0
 12 14  1  0  0  0  0
 14 15  1  0  0  0  0
 15 16  2  0  0  0  0
 15 37  1  0  0  0  0
 16 17  1  0  0  0  0
 17 18  2  0  0  0  0
 18 19  1  0  0  0  0
 18 36  1  0  0  0  0
 19 20  2  0  0  0  0
 20 21  1  0  0  0  0
 20 35  1  0  0  0  0
 21 22  1  0  0  0  0
 22 23  1  0  0  0  0
 23 24  2  0  0  0  0
 23 33  1  0  0  0  0
 24 25  1  0  0  0  0
 24 26  1  0  0  0  0
 26 27  2  0  0  0  0
 27 28  1  0  0  0  0
 27 29  1  0  0  0  0
 29 30  1  0  0  0  0
 29 33  2  0  0  0  0
 30 31  1  0  0  0  0
 30 32  2  0  0  0  0
 33 34  1  0  0  0  0
 35 36  1  0  0  0  0
 36 37  2  0  0  0  0
M  END
$$$$

 OpenBabel12191814062D

 36 38  0  0  0  0  0  0  0  0999 V2000
   -6.5191   -0.7441    0.0000 C   0  0  0  0  0  0  0  0  0  0  0  0
   -6.9316   -1.4586    0.0000 C   0  0  0  0  0  0  0  0  0  0  0  0
   -6.5191   -2.1730    0.0000 C   0  0  0  0  0  0  0  0  0  0  0  0
   -6.9316   -2.8875    0.0000 C   0  0  0  0  0  0  0  0  0  0  0  0
   -6.5191   -3.6020    0.0000 O   0  0  0  0  0  0  0  0  0  0  0  0
   -5.6941   -3.6020    0.0000 C   0  0  0  0  0  0  0  0  0  0  0  0
   -5.2816   -2.8875    0.0000 C   0  0  0  0  0  0  0  0  0  0  0  0
   -4.4566   -2.8875    0.0000 C   0  0  0  0  0  0  0  0  0  0  0  0
   -4.0441   -3.6020    0.0000 C   0  0  0  0  0  0  0  0  0  0  0  0
   -4.4566   -4.3164    0.0000 C   0  0  0  0  0  0  0  0  0  0  0  0
   -5.2816   -4.3164    0.0000 C   0  0  0  0  0  0  0  0  0  0  0  0
   -3.2191   -3.6020    0.0000 C   0  0  0  0  0  0  0  0  0  0  0  0
   -2.8066   -4.3164    0.0000 O   0  0  0  0  0  0  0  0  0  0  0  0
   -2.8066   -2.8875    0.0000 O   0  0  0  0  0  0  0  0  0  0  0  0
   -1.9816   -2.8875    0.0000 C   0  0  0  0  0  0  0  0  0  0  0  0
   -1.5691   -2.1730    0.0000 C   0  0  0  0  0  0  0  0  0  0  0  0
   -0.7441   -2.1730    0.0000 N   0  0  0  0  0  0  0  0  0  0  0  0
   -0.3316   -1.4586    0.0000 C   0  0  0  0  0  0  0  0  0  0  0  0
    0.4934   -1.4586    0.0000 C   0  0  0  0  0  0  0  0  0  0  0  0
    0.9059   -2.1730    0.0000 N   0  0  0  0  0  0  0  0  0  0  0  0
    1.7309   -2.1730    0.0000 C   0  0  0  0  0  0  0  0  0  0  0  0
    2.1434   -2.8875    0.0000 C   0  0  0  0  0  0  0  0  0  0  0  0
    2.9684   -2.8875    0.0000 O   0  0  0  0  0  0  0  0  0  0  0  0
    3.3809   -3.6020    0.0000 C   0  0  0  0  0  0  0  0  0  0  0  0
    2.9684   -4.3164    0.0000 O   0  0  0  0  0  0  0  0  0  0  0  0
    4.2059   -3.6020    0.0000 C   0  0  3  0  0  0  0  0  0  0  0  0
    4.6184   -2.8875    0.0000 C   0  0  0  0  0  0  0  0  0  0  0  0
    5.4434   -2.8875    0.0000 C   0  0  0  0  0  0  0  0  0  0  0  0
    4.6184   -4.3164    0.0000 C   0  0  0  0  0  0  0  0  0  0  0  0
    5.4434   -4.3164    0.0000 C   0  0  0  0  0  0  0  0  0  0  0  0
    5.8559   -5.0309    0.0000 C   0  0  0  0  0  0  0  0  0  0  0  0
    5.4434   -5.7454    0.0000 C   0  0  0  0  0  0  0  0  0  0  0  0
    4.6184   -5.7454    0.0000 C   0  0  0  0  0  0  0  0  0  0  0  0
    4.2059   -5.0309    0.0000 C   0  0  0  0  0  0  0  0  0  0  0  0
    0.4934   -2.8875    0.0000 C   0  0  0  0  0  0  0  0  0  0  0  0
   -0.3316   -2.8875    0.0000 C   0  0  0  0  0  0  0  0  0  0  0  0
  1  2  1  0  0  0  0
  2  3  1  0  0  0  0
  3  4  1  0  0  0  0
  4  5  1  0  0  0  0
  5  6  1  0  0  0  0
  6  7  2  0  0  0  0
  6 11  1  0  0  0  0
  7  8  1  0  0  0  0
  8  9  2  0  0  0  0
  9 10  1  0  0  0  0
  9 12  1  0  0  0  0
 10 11  2  0  0  0  0
 12 13  2  0  0  0  0
 12 14  1  0  0  0  0
 14 15  1  0  0  0  0
 15 16  1  0  0  0  0
 16 17  1  0  0  0  0
 17 18  1  0  0  0  0
 17 36  1  0  0  0  0
 18 19  1  0  0  0  0
 19 20  1  0  0  0  0
 20 21  1  0  0  0  0
 20 35  1  0  0  0  0
 21 22  1  0  0  0  0
 22 23  1  0  0  0  0
 23 24  1  0  0  0  0
 24 25  2  0  0  0  0
 24 26  1  0  0  0  0
 26 27  1  0  0  0  0
 26 29  1  0  0  0  0
 27 28  1  0  0  0  0
 29 30  2  0  0  0  0
 29 34  1  0  0  0  0
 30 31  1  0  0  0  0
 31 32  2  0  0  0  0
 32 33  1  0  0  0  0
 33 34  2  0  0  0  0
 35 36  1  0  0  0  0
M  END
$$$$

 OpenBabel12191814062D

 35 36  0  0  0  0  0  0  0  0999 V2000
    2.6664    3.9552    0.0000 C   0  0  0  0  0  0  0  0  0  0  0  0
    2.2539    3.2408    0.0000 C   0  0  0  0  0  0  0  0  0  0  0  0
    2.6664    2.5263    0.0000 C   0  0  0  0  0  0  0  0  0  0  0  0
    2.2539    1.8118    0.0000 C   0  0  0  0  0  0  0  0  0  0  0  0
    2.6664    1.0974    0.0000 O   0  0  0  0  0  0  0  0  0  0  0  0
    2.2539    0.3829    0.0000 C   0  0  0  0  0  0  0  0  0  0  0  0
    2.6664   -0.3316    0.0000 C   0  0  0  0  0  0  0  0  0  0  0  0
    2.2539   -1.0461    0.0000 C   0  0  0  0  0  0  0  0  0  0  0  0
    1.4289   -1.0461    0.0000 C   0  0  0  0  0  0  0  0  0  0  0  0
    1.0164   -1.7605    0.0000 O   0  0  0  0  0  0  0  0  0  0  0  0
    1.4289   -2.4750    0.0000 C   0  0  0  0  0  0  0  0  0  0  0  0
    1.0164   -3.1895    0.0000 C   0  0  0  0  0  0  0  0  0  0  0  0
    0.1914   -3.1895    0.0000 O   0  0  0  0  0  0  0  0  0  0  0  0
    1.4289   -3.9039    0.0000 N   0  0  0  0  0  0  0  0  0  0  0  0
    2.2539   -3.9039    0.0000 C   0  0  0  0  0  0  0  0  0  0  0  0
    2.6664   -3.1895    0.0000 C   0  0  0  0  0  0  0  0  0  0  0  0
    3.4914   -3.1895    0.0000 N   0  0  0  0  0  0  0  0  0  0  0  0
    3.9039   -3.9039    0.0000 C   0  0  0  0  0  0  0  0  0  0  0  0
    4.7289   -3.9039    0.0000 C   0  0  0  0  0  0  0  0  0  0  0  0
    3.9039   -2.4750    0.0000 C   0  0  0  0  0  0  0  0  0  0  0  0
    4.7289   -2.4750    0.0000 C   0  0  0  0  0  0  0  0  0  0  0  0
    1.0164   -4.6184    0.0000 C   0  0  0  0  0  0  0  0  0  0  0  0
    1.4289   -5.3329    0.0000 C   0  0  0  0  0  0  0  0  0  0  0  0
    1.0164   -6.0474    0.0000 C   0  0  0  0  0  0  0  0  0  0  0  0
    1.4289   -6.7618    0.0000 O   0  0  0  0  0  0  0  0  0  0  0  0
    1.0164   -7.4763    0.0000 C   0  0  0  0  0  0  0  0  0  0  0  0
    1.4289   -8.1908    0.0000 C   0  0  0  0  0  0  0  0  0  0  0  0
    0.1914   -6.0474    0.0000 C   0  0  0  0  0  0  0  0  0  0  0  0
   -0.2211   -5.3329    0.0000 C   0  0  0  0  0  0  0  0  0  0  0  0
    0.1914   -4.6184    0.0000 C   0  0  0  0  0  0  0  0  0  0  0  0
   -0.2211   -3.9039    0.0000 O   0  0  0  0  0  0  0  0  0  0  0  0
   -1.0461   -3.9039    0.0000 C   0  0  0  0  0  0  0  0  0  0  0  0
   -1.4586   -3.1895    0.0000 C   0  0  0  0  0  0  0  0  0  0  0  0
    1.0164   -0.3316    0.0000 C   0  0  0  0  0  0  0  0  0  0  0  0
    1.4289    0.3829    0.0000 C   0  0  0  0  0  0  0  0  0  0  0  0
  1  2  1  0  0  0  0
  2  3  1  0  0  0  0
  3  4  1  0  0  0  0
  4  5  1  0  0  0  0
  5  6  1  0  0  0  0
  6  7  2  0  0  0  0
  6 35  1  0  0  0  0
  7  8  1  0  0  0  0
  8  9  2  0  0  0  0
  9 10  1  0  0  0  0
  9 34  1  0  0  0  0
 10 11  1  0  0  0  0
 11 12  1  0  0  0  0
 12 13  2  0  0  0  0
 12 14  1  0  0  0  0
 14 15  1  0  0  0  0
 14 22  1  0  0  0  0
 15 16  1  0  0  0  0
 16 17  1  0  0  0  0
 17 18  1  0  0  0  0
 17 20  1  0  0  0  0
 18 19  1  0  0  0  0
 20 21  1  0  0  0  0
 22 23  2  0  0  0  0
 22 30  1  0  0  0  0
 23 24  1  0  0  0  0
 24 25  1  0  0  0  0
 24 28  2  0  0  0  0
 25 26  1  0  0  0  0
 26 27  1  0  0  0  0
 28 29  1  0  0  0  0
 29 30  2  0  0  0  0
 30 31  1  0  0  0  0
 31 32  1  0  0  0  0
 32 33  1  0  0  0  0
 34 35  2  0  0  0  0
M  END
$$$$

 OpenBabel12191814062D

 48 52  0  0  0  0  0  0  0  0999 V2000
   -5.5337   -2.8414    0.0000 C   0  0  0  0  0  0  0  0  0  0  0  0
   -4.7087   -2.8414    0.0000 C   0  0  0  0  0  0  0  0  0  0  0  0
   -4.2962   -2.1269    0.0000 C   0  0  0  0  0  0  0  0  0  0  0  0
   -3.4712   -2.1269    0.0000 C   0  0  0  0  0  0  0  0  0  0  0  0
   -3.0587   -1.4124    0.0000 S   0  0  0  0  0  0  0  0  0  0  0  0
   -2.3442   -1.8249    0.0000 O   0  0  0  0  0  0  0  0  0  0  0  0
   -3.7732   -0.9999    0.0000 O   0  0  0  0  0  0  0  0  0  0  0  0
   -2.6462   -0.6979    0.0000 O   0  0  0  0  0  0  0  0  0  0  0  0
   -1.8212   -0.6979    0.0000 C   0  0  0  0  0  0  0  0  0  0  0  0
   -1.4087    0.0165    0.0000 C   0  0  0  0  0  0  0  0  0  0  0  0
   -0.5837    0.0165    0.0000 C   0  0  0  0  0  0  0  0  0  0  0  0
   -0.1712   -0.6979    0.0000 C   0  0  0  0  0  0  0  0  0  0  0  0
   -0.5837   -1.4124    0.0000 C   0  0  0  0  0  0  0  0  0  0  0  0
   -1.4087   -1.4124    0.0000 C   0  0  0  0  0  0  0  0  0  0  0  0
    0.6538   -0.6979    0.0000 C   0  0  0  0  0  0  0  0  0  0  0  0
    1.1387   -0.0305    0.0000 S   0  0  0  0  0  0  0  0  0  0  0  0
    1.9233   -0.2854    0.0000 C   0  0  0  0  0  0  0  0  0  0  0  0
    2.6378    0.1271    0.0000 C   0  0  0  0  0  0  0  0  0  0  0  0
    3.3523   -0.2854    0.0000 C   0  0  0  0  0  0  0  0  0  0  0  0
    4.0668    0.1271    0.0000 O   0  0  0  0  0  0  0  0  0  0  0  0
    4.0668    0.9521    0.0000 S   0  0  0  0  0  0  0  0  0  0  0  0
    3.2418    0.9521    0.0000 O   0  0  0  0  0  0  0  0  0  0  0  0
    4.8918    0.9521    0.0000 O   0  0  0  0  0  0  0  0  0  0  0  0
    4.0668    1.7771    0.0000 C   0  0  0  0  0  0  0  0  0  0  0  0
    4.7812    2.1896    0.0000 C   0  0  0  0  0  0  0  0  0  0  0  0
    4.7812    3.0146    0.0000 C   0  0  0  0  0  0  0  0  0  0  0  0
    5.4957    3.4271    0.0000 C   0  0  0  0  0  0  0  0  0  0  0  0
    3.3523   -1.1104    0.0000 C   0  0  0  0  0  0  0  0  0  0  0  0
    2.6378   -1.5229    0.0000 C   0  0  0  0  0  0  0  0  0  0  0  0
    1.9233   -1.1104    0.0000 C   0  0  0  0  0  0  0  0  0  0  0  0
    1.1387   -1.3654    0.0000 C   0  0  0  0  0  0  0  0  0  0  0  0
    0.8838   -2.1500    0.0000 C   0  0  0  0  0  0  0  0  0  0  0  0
    0.0768   -2.3215    0.0000 O   0  0  0  0  0  0  0  0  0  0  0  0
    1.4358   -2.7631    0.0000 C   0  0  0  0  0  0  0  0  0  0  0  0
    2.2428   -2.5916    0.0000 C   0  0  0  0  0  0  0  0  0  0  0  0
    2.7948   -3.2047    0.0000 C   0  0  0  0  0  0  0  0  0  0  0  0
    2.5399   -3.9893    0.0000 C   0  0  0  0  0  0  0  0  0  0  0  0
    3.0919   -4.6024    0.0000 O   0  0  0  0  0  0  0  0  0  0  0  0
    2.8370   -5.3870    0.0000 C   0  0  0  0  0  0  0  0  0  0  0  0
    3.3890   -6.0001    0.0000 C   0  0  0  0  0  0  0  0  0  0  0  0
    4.1960   -5.8286    0.0000 N   0  0  0  0  0  0  0  0  0  0  0  0
    4.4509   -5.0439    0.0000 C   0  0  0  0  0  0  0  0  0  0  0  0
    5.2579   -4.8724    0.0000 C   0  0  0  0  0  0  0  0  0  0  0  0
    5.8099   -5.4855    0.0000 C   0  0  0  0  0  0  0  0  0  0  0  0
    5.5550   -6.2701    0.0000 C   0  0  0  0  0  0  0  0  0  0  0  0
    4.7480   -6.4417    0.0000 C   0  0  0  0  0  0  0  0  0  0  0  0
    1.7329   -4.1608    0.0000 C   0  0  0  0  0  0  0  0  0  0  0  0
    1.1809   -3.5477    0.0000 C   0  0  0  0  0  0  0  0  0  0  0  0
  1  2  1  0  0  0  0
  2  3  1  0  0  0  0
  3  4  1  0  0  0  0
  4  5  1  0  0  0  0
  5  6  2  0  0  0  0
  5  7  2  0  0  0  0
  5  8  1  0  0  0  0
  8  9  1  0  0  0  0
  9 10  2  0  0  0  0
  9 14  1  0  0  0  0
 10 11  1  0  0  0  0
 11 12  2  0  0  0  0
 12 13  1  0  0  0  0
 12 15  1  0  0  0  0
 13 14  2  0  0  0  0
 15 16  1  0  0  0  0
 15 31  2  0  0  0  0
 16 17  1  0  0  0  0
 17 18  2  0  0  0  0
 17 30  1  0  0  0  0
 18 19  1  0  0  0  0
 19 20  1  0  0  0  0
 19 28  2  0  0  0  0
 20 21  1  0  0  0  0
 21 22  2  0  0  0  0
 21 23  2  0  0  0  0
 21 24  1  0  0  0  0
 24 25  1  0  0  0  0
 25 26  1  0  0  0  0
 26 27  1  0  0  0  0
 28 29  1  0  0  0  0
 29 30  2  0  0  0  0
 30 31  1  0  0  0  0
 31 32  1  0  0  0  0
 32 33  2  0  0  0  0
 32 34  1  0  0  0  0
 34 35  2  0  0  0  0
 34 48  1  0  0  0  0
 35 36  1  0  0  0  0
 36 37  2  0  0  0  0
 37 38  1  0  0  0  0
 37 47  1  0  0  0  0
 38 39  1  0  0  0  0
 39 40  1  0  0  0  0
 40 41  1  0  0  0  0
 41 42  1  0  0  0  0
 41 46  1  0  0  0  0
 42 43  1  0  0  0  0
 43 44  1  0  0  0  0
 44 45  1  0  0  0  0
 45 46  1  0  0  0  0
 47 48  2  0  0  0  0
M  END
$$$$

 OpenBabel12191814062D

 47 51  0  0  0  0  0  0  0  0999 V2000
    6.2102   -0.5396    0.0000 C   0  0  0  0  0  0  0  0  0  0  0  0
    6.2102    0.2854    0.0000 C   0  0  0  0  0  0  0  0  0  0  0  0
    5.4957    0.6979    0.0000 C   0  0  0  0  0  0  0  0  0  0  0  0
    5.4957    1.5229    0.0000 C   0  0  0  0  0  0  0  0  0  0  0  0
    4.7812    1.9354    0.0000 S   0  0  0  0  0  0  0  0  0  0  0  0
    5.1937    2.6499    0.0000 O   0  0  0  0  0  0  0  0  0  0  0  0
    4.3687    1.2210    0.0000 O   0  0  0  0  0  0  0  0  0  0  0  0
    4.0668    2.3479    0.0000 O   0  0  0  0  0  0  0  0  0  0  0  0
    3.3523    1.9354    0.0000 C   0  0  0  0  0  0  0  0  0  0  0  0
    3.3523    1.1104    0.0000 C   0  0  0  0  0  0  0  0  0  0  0  0
    2.6378    0.6979    0.0000 C   0  0  0  0  0  0  0  0  0  0  0  0
    1.9233    1.1104    0.0000 C   0  0  0  0  0  0  0  0  0  0  0  0
    1.1387    0.8555    0.0000 C   0  0  0  0  0  0  0  0  0  0  0  0
    0.8838    0.0709    0.0000 C   0  0  0  0  0  0  0  0  0  0  0  0
    0.0768   -0.1006    0.0000 O   0  0  0  0  0  0  0  0  0  0  0  0
    1.4358   -0.5422    0.0000 C   0  0  0  0  0  0  0  0  0  0  0  0
    2.2428   -0.3707    0.0000 C   0  0  0  0  0  0  0  0  0  0  0  0
    2.7948   -0.9838    0.0000 C   0  0  0  0  0  0  0  0  0  0  0  0
    2.5399   -1.7684    0.0000 C   0  0  0  0  0  0  0  0  0  0  0  0
    3.0919   -2.3815    0.0000 O   0  0  0  0  0  0  0  0  0  0  0  0
    2.8370   -3.1661    0.0000 C   0  0  0  0  0  0  0  0  0  0  0  0
    3.3890   -3.7792    0.0000 C   0  0  0  0  0  0  0  0  0  0  0  0
    4.1960   -3.6077    0.0000 N   0  0  0  0  0  0  0  0  0  0  0  0
    4.4509   -2.8231    0.0000 C   0  0  0  0  0  0  0  0  0  0  0  0
    5.2579   -2.6515    0.0000 C   0  0  0  0  0  0  0  0  0  0  0  0
    5.8099   -3.2646    0.0000 C   0  0  0  0  0  0  0  0  0  0  0  0
    5.5550   -4.0493    0.0000 C   0  0  0  0  0  0  0  0  0  0  0  0
    4.7480   -4.2208    0.0000 C   0  0  0  0  0  0  0  0  0  0  0  0
    1.7329   -1.9399    0.0000 C   0  0  0  0  0  0  0  0  0  0  0  0
    1.1809   -1.3268    0.0000 C   0  0  0  0  0  0  0  0  0  0  0  0
    0.6538    1.5229    0.0000 C   0  0  0  0  0  0  0  0  0  0  0  0
    1.1387    2.1904    0.0000 S   0  0  0  0  0  0  0  0  0  0  0  0
    1.9233    1.9354    0.0000 C   0  0  0  0  0  0  0  0  0  0  0  0
    2.6378    2.3479    0.0000 C   0  0  0  0  0  0  0  0  0  0  0  0
   -0.1712    1.5229    0.0000 C   0  0  0  0  0  0  0  0  0  0  0  0
   -0.5837    0.8085    0.0000 C   0  0  0  0  0  0  0  0  0  0  0  0
   -1.4087    0.8085    0.0000 C   0  0  0  0  0  0  0  0  0  0  0  0
   -1.8212    1.5229    0.0000 C   0  0  0  0  0  0  0  0  0  0  0  0
   -1.4087    2.2374    0.0000 C   0  0  0  0  0  0  0  0  0  0  0  0
   -0.5837    2.2374    0.0000 C   0  0  0  0  0  0  0  0  0  0  0  0
   -2.6462    1.5229    0.0000 S   0  0  0  0  0  0  0  0  0  0  0  0
   -3.4712    1.5229    0.0000 O   0  0  0  0  0  0  0  0  0  0  0  0
   -2.6462    0.6979    0.0000 O   0  0  0  0  0  0  0  0  0  0  0  0
   -2.6462    2.3479    0.0000 C   0  0  0  0  0  0  0  0  0  0  0  0
   -1.9317    2.7604    0.0000 C   0  0  0  0  0  0  0  0  0  0  0  0
   -1.9317    3.5854    0.0000 C   0  0  0  0  0  0  0  0  0  0  0  0
   -1.2173    3.9979    0.0000 C   0  0  0  0  0  0  0  0  0  0  0  0
  1  2  1  0  0  0  0
  2  3  1  0  0  0  0
  3  4  1  0  0  0  0
  4  5  1  0  0  0  0
  5  6  2  0  0  0  0
  5  7  2  0  0  0  0
  5  8  1  0  0  0  0
  8  9  1  0  0  0  0
  9 10  2  0  0  0  0
  9 34  1  0  0  0  0
 10 11  1  0  0  0  0
 11 12  2  0  0  0  0
 12 13  1  0  0  0  0
 12 33  1  0  0  0  0
 13 14  1  0  0  0  0
 13 31  2  0  0  0  0
 14 15  2  0  0  0  0
 14 16  1  0  0  0  0
 16 17  2  0  0  0  0
 16 30  1  0  0  0  0
 17 18  1  0  0  0  0
 18 19  2  0  0  0  0
 19 20  1  0  0  0  0
 19 29  1  0  0  0  0
 20 21  1  0  0  0  0
 21 22  1  0  0  0  0
 22 23  1  0  0  0  0
 23 24  1  0  0  0  0
 23 28  1  0  0  0  0
 24 25  1  0  0  0  0
 25 26  1  0  0  0  0
 26 27  1  0  0  0  0
 27 28  1  0  0  0  0
 29 30  2  0  0  0  0
 31 32  1  0  0  0  0
 31 35  1  0  0  0  0
 32 33  1  0  0  0  0
 33 34  2  0  0  0  0
 35 36  2  0  0  0  0
 35 40  1  0  0  0  0
 36 37  1  0  0  0  0
 37 38  2  0  0  0  0
 38 39  1  0  0  0  0
 38 41  1  0  0  0  0
 39 40  2  0  0  0  0
 41 42  2  0  0  0  0
 41 43  2  0  0  0  0
 41 44  1  0  0  0  0
 44 45  1  0  0  0  0
 45 46  1  0  0  0  0
 46 47  1  0  0  0  0
M  END
$$$$

 OpenBabel12191814062D

 27 30  0  0  0  0  0  0  0  0999 V2000
    3.5978    4.5340    0.0000 C   0  0  0  0  0  0  0  0  0  0  0  0
    3.3772    3.7391    0.0000 C   0  0  0  0  0  0  0  0  0  0  0  0
    3.9554    3.1506    0.0000 C   0  0  0  0  0  0  0  0  0  0  0  0
    3.7348    2.3556    0.0000 C   0  0  0  0  0  0  0  0  0  0  0  0
    4.3130    1.7671    0.0000 S   0  0  0  0  0  0  0  0  0  0  0  0
    4.0924    0.9721    0.0000 C   0  0  0  0  0  0  0  0  0  0  0  0
    4.6706    0.3836    0.0000 N   0  0  0  0  0  0  0  0  0  0  0  0
    4.4500   -0.4114    0.0000 C   0  0  0  0  0  0  0  0  0  0  0  0
    5.0281   -0.9999    0.0000 C   0  0  0  0  0  0  0  0  0  0  0  0
    5.8269   -0.7934    0.0000 C   0  0  0  0  0  0  0  0  0  0  0  0
    6.4051   -1.3819    0.0000 C   0  0  0  0  0  0  0  0  0  0  0  0
    6.1845   -2.1769    0.0000 C   0  0  0  0  0  0  0  0  0  0  0  0
    5.3857   -2.3834    0.0000 C   0  0  0  0  0  0  0  0  0  0  0  0
    4.8076   -1.7948    0.0000 C   0  0  0  0  0  0  0  0  0  0  0  0
    4.0088   -2.0013    0.0000 C   0  0  0  0  0  0  0  0  0  0  0  0
    3.4306   -1.4128    0.0000 C   0  0  0  0  0  0  0  0  0  0  0  0
    3.1282   -2.1803    0.0000 C   0  0  0  0  0  0  0  0  0  0  0  0
    2.3047   -2.1298    0.0000 C   0  0  0  0  0  0  0  0  0  0  0  0
    2.0983   -1.3311    0.0000 C   0  0  0  0  0  0  0  0  0  0  0  0
    2.7941   -0.8879    0.0000 C   0  0  0  0  0  0  0  0  0  0  0  0
    3.6512   -0.6178    0.0000 C   0  0  0  0  0  0  0  0  0  0  0  0
    3.0731   -0.0293    0.0000 C   0  0  0  0  0  0  0  0  0  0  0  0
    2.2743   -0.2357    0.0000 O   0  0  0  0  0  0  0  0  0  0  0  0
    3.2936    0.7657    0.0000 N   0  0  0  0  0  0  0  0  0  0  0  0
    2.7155    1.3542    0.0000 C   0  0  0  0  0  0  0  0  0  0  0  0
    1.9167    1.1477    0.0000 C   0  0  0  0  0  0  0  0  0  0  0  0
    1.3386    1.7362    0.0000 C   0  0  0  0  0  0  0  0  0  0  0  0
  1  2  1  0  0  0  0
  2  3  1  0  0  0  0
  3  4  1  0  0  0  0
  4  5  1  0  0  0  0
  5  6  1  0  0  0  0
  6  7  2  0  0  0  0
  6 24  1  0  0  0  0
  7  8  1  0  0  0  0
  8  9  1  0  0  0  0
  8 21  2  0  0  0  0
  9 10  2  0  0  0  0
  9 14  1  0  0  0  0
 10 11  1  0  0  0  0
 11 12  2  0  0  0  0
 12 13  1  0  0  0  0
 13 14  2  0  0  0  0
 14 15  1  0  0  0  0
 15 16  1  0  0  0  0
 16 17  1  0  0  0  0
 16 20  1  0  0  0  0
 16 21  1  0  0  0  0
 17 18  1  0  0  0  0
 18 19  1  0  0  0  0
 19 20  1  0  0  0  0
 21 22  1  0  0  0  0
 22 23  2  0  0  0  0
 22 24  1  0  0  0  0
 24 25  1  0  0  0  0
 25 26  1  0  0  0  0
 26 27  2  0  0  0  0
M  END
$$$$

 OpenBabel12191814062D

 26 27  0  0  0  0  0  0  0  0999 V2000
    0.7145   -6.1875    0.0000 C   0  0  0  0  0  0  0  0  0  0  0  0
    1.4289   -6.6000    0.0000 C   0  0  0  0  0  0  0  0  0  0  0  0
    2.1434   -6.1875    0.0000 C   0  0  0  0  0  0  0  0  0  0  0  0
    2.8579   -6.6000    0.0000 N   0  0  0  0  0  0  0  0  0  0  0  0
    2.8579   -7.4250    0.0000 C   0  0  0  0  0  0  0  0  0  0  0  0
    3.5724   -6.1875    0.0000 C   0  0  0  0  0  0  0  0  0  0  0  0
    4.2868   -6.6000    0.0000 C   0  0  3  0  0  0  0  0  0  0  0  0
    4.2868   -7.4250    0.0000 O   0  0  0  0  0  0  0  0  0  0  0  0
    5.0013   -6.1875    0.0000 C   0  0  0  0  0  0  0  0  0  0  0  0
    5.7158   -6.6000    0.0000 O   0  0  0  0  0  0  0  0  0  0  0  0
    6.4302   -6.1875    0.0000 C   0  0  0  0  0  0  0  0  0  0  0  0
    6.4302   -5.3625    0.0000 C   0  0  0  0  0  0  0  0  0  0  0  0
    7.1447   -4.9500    0.0000 C   0  0  0  0  0  0  0  0  0  0  0  0
    7.8592   -5.3625    0.0000 C   0  0  0  0  0  0  0  0  0  0  0  0
    7.8592   -6.1875    0.0000 C   0  0  0  0  0  0  0  0  0  0  0  0
    7.1447   -6.6000    0.0000 C   0  0  0  0  0  0  0  0  0  0  0  0
    7.1447   -7.4250    0.0000 C   0  0  0  0  0  0  0  0  0  0  0  0
    7.8592   -7.8375    0.0000 O   0  0  0  0  0  0  0  0  0  0  0  0
    6.4302   -7.8375    0.0000 C   0  0  0  0  0  0  0  0  0  0  0  0
    6.4302   -8.6625    0.0000 C   0  0  0  0  0  0  0  0  0  0  0  0
    7.1447   -9.0750    0.0000 C   0  0  0  0  0  0  0  0  0  0  0  0
    7.8592   -8.6625    0.0000 C   0  0  0  0  0  0  0  0  0  0  0  0
    8.5737   -9.0750    0.0000 C   0  0  0  0  0  0  0  0  0  0  0  0
    8.5737   -9.9000    0.0000 C   0  0  0  0  0  0  0  0  0  0  0  0
    7.8592  -10.3125    0.0000 C   0  0  0  0  0  0  0  0  0  0  0  0
    7.1447   -9.9000    0.0000 C   0  0  0  0  0  0  0  0  0  0  0  0
  1  2  1  0  0  0  0
  2  3  1  0  0  0  0
  3  4  1  0  0  0  0
  4  5  1  0  0  0  0
  4  6  1  0  0  0  0
  6  7  1  0  0  0  0
  7  8  1  0  0  0  0
  7  9  1  0  0  0  0
  9 10  1  0  0  0  0
 10 11  1  0  0  0  0
 11 12  2  0  0  0  0
 11 16  1  0  0  0  0
 12 13  1  0  0  0  0
 13 14  2  0  0  0  0
 14 15  1  0  0  0  0
 15 16  2  0  0  0  0
 16 17  1  0  0  0  0
 17 18  2  0  0  0  0
 17 19  1  0  0  0  0
 19 20  1  0  0  0  0
 20 21  1  0  0  0  0
 21 22  2  0  0  0  0
 21 26  1  0  0  0  0
 22 23  1  0  0  0  0
 23 24  2  0  0  0  0
 24 25  1  0  0  0  0
 25 26  2  0  0  0  0
M  END
$$$$

 OpenBabel12191814062D

 33 35  0  0  0  0  0  0  0  0999 V2000
    1.8734    0.3671    0.0000 C   0  0  0  0  0  0  0  0  0  0  0  0
    2.1434   -0.4125    0.0000 C   0  0  0  0  0  0  0  0  0  0  0  0
    2.9535   -0.5684    0.0000 C   0  0  0  0  0  0  0  0  0  0  0  0
    3.2236   -1.3480    0.0000 N   0  0  0  0  0  0  0  0  0  0  0  0
    4.0337   -1.5039    0.0000 C   0  0  0  0  0  0  0  0  0  0  0  0
    4.5738   -0.8802    0.0000 C   0  0  3  0  0  0  0  0  0  0  0  0
    4.3038   -0.1007    0.0000 O   0  0  0  0  0  0  0  0  0  0  0  0
    5.3839   -1.0361    0.0000 C   0  0  0  0  0  0  0  0  0  0  0  0
    5.9240   -0.4125    0.0000 O   0  0  0  0  0  0  0  0  0  0  0  0
    6.7342   -0.5684    0.0000 C   0  0  0  0  0  0  0  0  0  0  0  0
    7.2743    0.0552    0.0000 C   0  0  0  0  0  0  0  0  0  0  0  0
    8.0844   -0.1007    0.0000 C   0  0  0  0  0  0  0  0  0  0  0  0
    8.3544   -0.8802    0.0000 C   0  0  0  0  0  0  0  0  0  0  0  0
    7.8144   -1.5039    0.0000 C   0  0  0  0  0  0  0  0  0  0  0  0
    7.0042   -1.3480    0.0000 C   0  0  0  0  0  0  0  0  0  0  0  0
    6.4641   -1.9716    0.0000 C   0  0  0  0  0  0  0  0  0  0  0  0
    5.6540   -1.8157    0.0000 O   0  0  0  0  0  0  0  0  0  0  0  0
    6.7342   -2.7512    0.0000 C   0  0  0  0  0  0  0  0  0  0  0  0
    6.1941   -3.3748    0.0000 C   0  0  0  0  0  0  0  0  0  0  0  0
    6.4641   -4.1543    0.0000 C   0  0  0  0  0  0  0  0  0  0  0  0
    7.2743   -4.3103    0.0000 C   0  0  0  0  0  0  0  0  0  0  0  0
    7.5443   -5.0898    0.0000 C   0  0  0  0  0  0  0  0  0  0  0  0
    7.0042   -5.7135    0.0000 C   0  0  0  0  0  0  0  0  0  0  0  0
    6.1941   -5.5575    0.0000 C   0  0  0  0  0  0  0  0  0  0  0  0
    5.9240   -4.7780    0.0000 C   0  0  0  0  0  0  0  0  0  0  0  0
    2.6835   -1.9716    0.0000 C   0  0  0  0  0  0  0  0  0  0  0  0
    2.9535   -2.7512    0.0000 O   0  0  0  0  0  0  0  0  0  0  0  0
    1.8734   -1.8157    0.0000 C   0  0  0  0  0  0  0  0  0  0  0  0
    1.3333   -2.4393    0.0000 C   0  0  0  0  0  0  0  0  0  0  0  0
    0.5231   -2.2834    0.0000 C   0  0  0  0  0  0  0  0  0  0  0  0
    0.2531   -1.5039    0.0000 C   0  0  0  0  0  0  0  0  0  0  0  0
    0.7932   -0.8802    0.0000 C   0  0  0  0  0  0  0  0  0  0  0  0
    1.6033   -1.0361    0.0000 C   0  0  0  0  0  0  0  0  0  0  0  0
  1  2  1  0  0  0  0
  2  3  1  0  0  0  0
  3  4  1  0  0  0  0
  4  5  1  0  0  0  0
  4 26  1  0  0  0  0
  5  6  1  0  0  0  0
  6  7  1  0  0  0  0
  6  8  1  0  0  0  0
  8  9  1  0  0  0  0
  9 10  1  0  0  0  0
 10 11  2  0  0  0  0
 10 15  1  0  0  0  0
 11 12  1  0  0  0  0
 12 13  2  0  0  0  0
 13 14  1  0  0  0  0
 14 15  2  0  0  0  0
 15 16  1  0  0  0  0
 16 17  2  0  0  0  0
 16 18  1  0  0  0  0
 18 19  1  0  0  0  0
 19 20  1  0  0  0  0
 20 21  2  0  0  0  0
 20 25  1  0  0  0  0
 21 22  1  0  0  0  0
 22 23  2  0  0  0  0
 23 24  1  0  0  0  0
 24 25  2  0  0  0  0
 26 27  2  0  0  0  0
 26 28  1  0  0  0  0
 28 29  2  0  0  0  0
 28 33  1  0  0  0  0
 29 30  1  0  0  0  0
 30 31  2  0  0  0  0
 31 32  1  0  0  0  0
 32 33  2  0  0  0  0
M  END
$$$$

 OpenBabel12191814062D

 32 34  0  0  0  0  0  0  0  0999 V2000
    1.8734    0.3671    0.0000 C   0  0  0  0  0  0  0  0  0  0  0  0
    2.1434   -0.4125    0.0000 C   0  0  0  0  0  0  0  0  0  0  0  0
    2.9535   -0.5684    0.0000 C   0  0  0  0  0  0  0  0  0  0  0  0
    3.2236   -1.3480    0.0000 N   0  0  0  0  0  0  0  0  0  0  0  0
    4.0337   -1.5039    0.0000 C   0  0  0  0  0  0  0  0  0  0  0  0
    4.5738   -0.8802    0.0000 C   0  0  3  0  0  0  0  0  0  0  0  0
    4.3038   -0.1007    0.0000 O   0  0  0  0  0  0  0  0  0  0  0  0
    5.3839   -1.0361    0.0000 C   0  0  0  0  0  0  0  0  0  0  0  0
    5.9240   -0.4125    0.0000 O   0  0  0  0  0  0  0  0  0  0  0  0
    6.7342   -0.5684    0.0000 C   0  0  0  0  0  0  0  0  0  0  0  0
    7.2743    0.0552    0.0000 C   0  0  0  0  0  0  0  0  0  0  0  0
    8.0844   -0.1007    0.0000 C   0  0  0  0  0  0  0  0  0  0  0  0
    8.3544   -0.8802    0.0000 C   0  0  0  0  0  0  0  0  0  0  0  0
    7.8144   -1.5039    0.0000 C   0  0  0  0  0  0  0  0  0  0  0  0
    7.0042   -1.3480    0.0000 C   0  0  0  0  0  0  0  0  0  0  0  0
    6.4641   -1.9716    0.0000 C   0  0  0  0  0  0  0  0  0  0  0  0
    5.6540   -1.8157    0.0000 O   0  0  0  0  0  0  0  0  0  0  0  0
    6.7342   -2.7512    0.0000 C   0  0  0  0  0  0  0  0  0  0  0  0
    6.1941   -3.3748    0.0000 C   0  0  0  0  0  0  0  0  0  0  0  0
    6.4641   -4.1543    0.0000 C   0  0  0  0  0  0  0  0  0  0  0  0
    7.2743   -4.3103    0.0000 C   0  0  0  0  0  0  0  0  0  0  0  0
    7.5443   -5.0898    0.0000 C   0  0  0  0  0  0  0  0  0  0  0  0
    7.0042   -5.7135    0.0000 C   0  0  0  0  0  0  0  0  0  0  0  0
    6.1941   -5.5575    0.0000 C   0  0  0  0  0  0  0  0  0  0  0  0
    5.9240   -4.7780    0.0000 C   0  0  0  0  0  0  0  0  0  0  0  0
    2.6835   -1.9716    0.0000 C   0  0  0  0  0  0  0  0  0  0  0  0
    1.8734   -1.8157    0.0000 C   0  0  0  0  0  0  0  0  0  0  0  0
    1.3333   -2.4393    0.0000 C   0  0  0  0  0  0  0  0  0  0  0  0
    0.5231   -2.2834    0.0000 C   0  0  0  0  0  0  0  0  0  0  0  0
    0.2531   -1.5039    0.0000 C   0  0  0  0  0  0  0  0  0  0  0  0
    0.7932   -0.8802    0.0000 C   0  0  0  0  0  0  0  0  0  0  0  0
    1.6033   -1.0361    0.0000 C   0  0  0  0  0  0  0  0  0  0  0  0
  1  2  1  0  0  0  0
  2  3  1  0  0  0  0
  3  4  1  0  0  0  0
  4  5  1  0  0  0  0
  4 26  1  0  0  0  0
  5  6  1  0  0  0  0
  6  7  1  0  0  0  0
  6  8  1  0  0  0  0
  8  9  1  0  0  0  0
  9 10  1  0  0  0  0
 10 11  2  0  0  0  0
 10 15  1  0  0  0  0
 11 12  1  0  0  0  0
 12 13  2  0  0  0  0
 13 14  1  0  0  0  0
 14 15  2  0  0  0  0
 15 16  1  0  0  0  0
 16 17  2  0  0  0  0
 16 18  1  0  0  0  0
 18 19  1  0  0  0  0
 19 20  1  0  0  0  0
 20 21  2  0  0  0  0
 20 25  1  0  0  0  0
 21 22  1  0  0  0  0
 22 23  2  0  0  0  0
 23 24  1  0  0  0  0
 24 25  2  0  0  0  0
 26 27  1  0  0  0  0
 27 28  2  0  0  0  0
 27 32  1  0  0  0  0
 28 29  1  0  0  0  0
 29 30  2  0  0  0  0
 30 31  1  0  0  0  0
 31 32  2  0  0  0  0
M  END
$$$$

 OpenBabel12191814062D

 30 32  0  0  0  0  0  0  0  0999 V2000
    3.6576   -5.3455    0.0000 C   0  0  0  0  0  0  0  0  0  0  0  0
    4.3721   -5.7580    0.0000 C   0  0  0  0  0  0  0  0  0  0  0  0
    4.3721   -6.5830    0.0000 C   0  0  0  0  0  0  0  0  0  0  0  0
    5.0865   -6.9955    0.0000 N   0  0  0  0  0  0  0  0  0  0  0  0
    5.8010   -6.5830    0.0000 C   0  0  0  0  0  0  0  0  0  0  0  0
    5.8010   -5.7580    0.0000 C   0  0  0  0  0  0  0  0  0  0  0  0
    6.5155   -5.3455    0.0000 C   0  0  0  0  0  0  0  0  0  0  0  0
    5.0865   -7.8205    0.0000 C   0  0  0  0  0  0  0  0  0  0  0  0
    5.8010   -8.2330    0.0000 C   0  0  0  0  0  0  0  0  0  0  0  0
    5.8010   -9.0580    0.0000 C   0  0  0  0  0  0  0  0  0  0  0  0
    5.0865   -9.4705    0.0000 C   0  0  0  0  0  0  0  0  0  0  0  0
    4.3721   -9.0580    0.0000 C   0  0  0  0  0  0  0  0  0  0  0  0
    4.3721   -8.2330    0.0000 C   0  0  0  0  0  0  0  0  0  0  0  0
    5.0865  -10.2955    0.0000 C   0  0  0  0  0  0  0  0  0  0  0  0
    5.7540  -10.7804    0.0000 C   0  0  0  0  0  0  0  0  0  0  0  0
    5.4990  -11.5650    0.0000 N   0  0  0  0  0  0  0  0  0  0  0  0
    4.6740  -11.5650    0.0000 C   0  0  0  0  0  0  0  0  0  0  0  0
    4.4191  -10.7804    0.0000 N   0  0  0  0  0  0  0  0  0  0  0  0
    4.1891  -12.2325    0.0000 C   0  0  0  0  0  0  0  0  0  0  0  0
    4.5247  -12.9862    0.0000 C   0  0  0  0  0  0  0  0  0  0  0  0
    4.0397  -13.6536    0.0000 C   0  0  0  0  0  0  0  0  0  0  0  0
    3.2193  -13.5674    0.0000 C   0  0  0  0  0  0  0  0  0  0  0  0
    2.7343  -14.2348    0.0000 C   0  0  0  0  0  0  0  0  0  0  0  0
    1.9139  -14.1486    0.0000 C   0  0  0  0  0  0  0  0  0  0  0  0
    1.4289  -14.8160    0.0000 C   0  0  0  0  0  0  0  0  0  0  0  0
    1.7645  -15.5697    0.0000 O   0  0  0  0  0  0  0  0  0  0  0  0
    1.2796  -16.2371    0.0000 C   0  0  0  0  0  0  0  0  0  0  0  0
    1.6151  -16.9908    0.0000 C   0  0  0  0  0  0  0  0  0  0  0  0
    2.8837  -12.8137    0.0000 C   0  0  0  0  0  0  0  0  0  0  0  0
    3.3686  -12.1463    0.0000 C   0  0  0  0  0  0  0  0  0  0  0  0
  1  2  1  0  0  0  0
  2  3  1  0  0  0  0
  3  4  1  0  0  0  0
  4  5  1  0  0  0  0
  4  8  1  0  0  0  0
  5  6  1  0  0  0  0
  6  7  1  0  0  0  0
  8  9  2  0  0  0  0
  8 13  1  0  0  0  0
  9 10  1  0  0  0  0
 10 11  2  0  0  0  0
 11 12  1  0  0  0  0
 11 14  1  0  0  0  0
 12 13  2  0  0  0  0
 14 15  2  0  0  0  0
 14 18  1  0  0  0  0
 15 16  1  0  0  0  0
 16 17  1  0  0  0  0
 17 18  2  0  0  0  0
 17 19  1  0  0  0  0
 19 20  2  0  0  0  0
 19 30  1  0  0  0  0
 20 21  1  0  0  0  0
 21 22  2  0  0  0  0
 22 23  1  0  0  0  0
 22 29  1  0  0  0  0
 23 24  2  0  0  0  0
 24 25  1  0  0  0  0
 25 26  1  0  0  0  0
 26 27  1  0  0  0  0
 27 28  1  0  0  0  0
 29 30  2  0  0  0  0
M  END
$$$$

 OpenBabel12191814062D

 38 41  0  0  0  0  0  0  0  0999 V2000
   -2.5016   -6.1854    0.0000 C   0  0  0  0  0  0  0  0  0  0  0  0
   -1.7871   -6.5979    0.0000 C   0  0  0  0  0  0  0  0  0  0  0  0
   -1.7871   -7.4229    0.0000 C   0  0  0  0  0  0  0  0  0  0  0  0
   -1.0726   -7.8354    0.0000 N   0  0  0  0  0  0  0  0  0  0  0  0
   -0.3581   -7.4229    0.0000 C   0  0  0  0  0  0  0  0  0  0  0  0
   -0.3581   -6.5979    0.0000 C   0  0  0  0  0  0  0  0  0  0  0  0
    0.3563   -6.1854    0.0000 C   0  0  0  0  0  0  0  0  0  0  0  0
   -1.0726   -8.6604    0.0000 C   0  0  0  0  0  0  0  0  0  0  0  0
   -0.3581   -9.0729    0.0000 C   0  0  0  0  0  0  0  0  0  0  0  0
   -0.3581   -9.8979    0.0000 C   0  0  0  0  0  0  0  0  0  0  0  0
   -1.0726  -10.3104    0.0000 C   0  0  0  0  0  0  0  0  0  0  0  0
   -1.7871   -9.8979    0.0000 C   0  0  0  0  0  0  0  0  0  0  0  0
   -1.7871   -9.0729    0.0000 C   0  0  0  0  0  0  0  0  0  0  0  0
   -1.0726  -11.1354    0.0000 C   0  0  0  0  0  0  0  0  0  0  0  0
   -0.4052  -11.6203    0.0000 N   0  0  0  0  0  0  0  0  0  0  0  0
   -0.6601  -12.4050    0.0000 C   0  0  0  0  0  0  0  0  0  0  0  0
   -1.4851  -12.4050    0.0000 N   0  0  0  0  0  0  0  0  0  0  0  0
   -1.7401  -11.6203    0.0000 C   0  0  0  0  0  0  0  0  0  0  0  0
   -2.5247  -11.3654    0.0000 C   0  0  0  0  0  0  0  0  0  0  0  0
   -3.1378  -11.9174    0.0000 C   0  0  0  0  0  0  0  0  0  0  0  0
   -3.9224  -11.6625    0.0000 C   0  0  0  0  0  0  0  0  0  0  0  0
   -4.0939  -10.8555    0.0000 C   0  0  0  0  0  0  0  0  0  0  0  0
   -4.8785  -10.6006    0.0000 N   0  0  0  0  0  0  0  0  0  0  0  0
   -5.0501   -9.7936    0.0000 C   0  0  0  0  0  0  0  0  0  0  0  0
   -3.4808  -10.3035    0.0000 C   0  0  0  0  0  0  0  0  0  0  0  0
   -2.6962  -10.5584    0.0000 C   0  0  0  0  0  0  0  0  0  0  0  0
   -0.1752  -13.0724    0.0000 C   0  0  0  0  0  0  0  0  0  0  0  0
    0.6453  -12.9862    0.0000 C   0  0  0  0  0  0  0  0  0  0  0  0
    1.1302  -13.6536    0.0000 C   0  0  0  0  0  0  0  0  0  0  0  0
    0.7947  -14.4073    0.0000 C   0  0  0  0  0  0  0  0  0  0  0  0
    1.2796  -15.0747    0.0000 C   0  0  0  0  0  0  0  0  0  0  0  0
    0.9440  -15.8284    0.0000 C   0  0  0  0  0  0  0  0  0  0  0  0
    1.4289  -16.4958    0.0000 C   0  0  0  0  0  0  0  0  0  0  0  0
    2.2494  -16.4096    0.0000 O   0  0  0  0  0  0  0  0  0  0  0  0
    1.0934  -17.2495    0.0000 O   0  0  0  0  0  0  0  0  0  0  0  0
    1.5783  -17.9169    0.0000 C   0  0  0  0  0  0  0  0  0  0  0  0
   -0.0258  -14.4935    0.0000 C   0  0  0  0  0  0  0  0  0  0  0  0
   -0.5107  -13.8261    0.0000 C   0  0  0  0  0  0  0  0  0  0  0  0
  1  2  1  0  0  0  0
  2  3  1  0  0  0  0
  3  4  1  0  0  0  0
  4  5  1  0  0  0  0
  4  8  1  0  0  0  0
  5  6  1  0  0  0  0
  6  7  1  0  0  0  0
  8  9  2  0  0  0  0
  8 13  1  0  0  0  0
  9 10  1  0  0  0  0
 10 11  2  0  0  0  0
 11 12  1  0  0  0  0
 11 14  1  0  0  0  0
 12 13  2  0  0  0  0
 14 15  1  0  0  0  0
 14 18  2  0  0  0  0
 15 16  1  0  0  0  0
 16 17  2  0  0  0  0
 16 27  1  0  0  0  0
 17 18  1  0  0  0  0
 18 19  1  0  0  0  0
 19 20  2  0  0  0  0
 19 26  1  0  0  0  0
 20 21  1  0  0  0  0
 21 22  2  0  0  0  0
 22 23  1  0  0  0  0
 22 25  1  0  0  0  0
 23 24  1  0  0  0  0
 25 26  2  0  0  0  0
 27 28  2  0  0  0  0
 27 38  1  0  0  0  0
 28 29  1  0  0  0  0
 29 30  2  0  0  0  0
 30 31  1  0  0  0  0
 30 37  1  0  0  0  0
 31 32  2  0  0  0  0
 32 33  1  0  0  0  0
 33 34  2  0  0  0  0
 33 35  1  0  0  0  0
 35 36  1  0  0  0  0
 37 38  2  0  0  0  0
M  END
$$$$

 OpenBabel12191814062D

 28 29  0  0  0  0  0  0  0  0999 V2000
   -7.2404   -7.3893    0.0000 C   0  0  0  0  0  0  0  0  0  0  0  0
   -6.7003   -6.7657    0.0000 C   0  0  0  0  0  0  0  0  0  0  0  0
   -5.8901   -6.9216    0.0000 C   0  0  0  0  0  0  0  0  0  0  0  0
   -5.3501   -6.2980    0.0000 N   0  0  0  0  0  0  0  0  0  0  0  0
   -5.6201   -5.5184    0.0000 C   0  0  0  0  0  0  0  0  0  0  0  0
   -6.4302   -5.3625    0.0000 C   0  0  0  0  0  0  0  0  0  0  0  0
   -6.7003   -4.5829    0.0000 C   0  0  0  0  0  0  0  0  0  0  0  0
   -4.5399   -6.4539    0.0000 C   0  0  0  0  0  0  0  0  0  0  0  0
   -3.9998   -5.8302    0.0000 C   0  0  3  0  0  0  0  0  0  0  0  0
   -4.2699   -5.0507    0.0000 O   0  0  0  0  0  0  0  0  0  0  0  0
   -3.1897   -5.9861    0.0000 C   0  0  0  0  0  0  0  0  0  0  0  0
   -2.6496   -5.3625    0.0000 O   0  0  0  0  0  0  0  0  0  0  0  0
   -1.8395   -5.5184    0.0000 C   0  0  0  0  0  0  0  0  0  0  0  0
   -1.2994   -4.8948    0.0000 C   0  0  0  0  0  0  0  0  0  0  0  0
   -0.4893   -5.0507    0.0000 C   0  0  0  0  0  0  0  0  0  0  0  0
   -0.2192   -5.8302    0.0000 C   0  0  0  0  0  0  0  0  0  0  0  0
   -0.7593   -6.4539    0.0000 C   0  0  0  0  0  0  0  0  0  0  0  0
   -1.5694   -6.2980    0.0000 C   0  0  0  0  0  0  0  0  0  0  0  0
    0.5909   -5.9861    0.0000 C   0  0  0  0  0  0  0  0  0  0  0  0
    1.1310   -5.3625    0.0000 O   0  0  0  0  0  0  0  0  0  0  0  0
    0.8610   -6.7657    0.0000 C   0  0  0  0  0  0  0  0  0  0  0  0
    1.6711   -6.9216    0.0000 C   0  0  0  0  0  0  0  0  0  0  0  0
    2.2112   -6.2980    0.0000 C   0  0  0  0  0  0  0  0  0  0  0  0
    1.9411   -5.5184    0.0000 C   0  0  0  0  0  0  0  0  0  0  0  0
    2.4812   -4.8948    0.0000 C   0  0  0  0  0  0  0  0  0  0  0  0
    3.2914   -5.0507    0.0000 C   0  0  0  0  0  0  0  0  0  0  0  0
    3.5614   -5.8302    0.0000 C   0  0  0  0  0  0  0  0  0  0  0  0
    3.0213   -6.4539    0.0000 C   0  0  0  0  0  0  0  0  0  0  0  0
  1  2  1  0  0  0  0
  2  3  1  0  0  0  0
  3  4  1  0  0  0  0
  4  5  1  0  0  0  0
  4  8  1  0  0  0  0
  5  6  1  0  0  0  0
  6  7  1  0  0  0  0
  8  9  1  0  0  0  0
  9 10  1  0  0  0  0
  9 11  1  0  0  0  0
 11 12  1  0  0  0  0
 12 13  1  0  0  0  0
 13 14  2  0  0  0  0
 13 18  1  0  0  0  0
 14 15  1  0  0  0  0
 15 16  2  0  0  0  0
 16 17  1  0  0  0  0
 16 19  1  0  0  0  0
 17 18  2  0  0  0  0
 19 20  2  0  0  0  0
 19 21  1  0  0  0  0
 21 22  1  0  0  0  0
 22 23  1  0  0  0  0
 23 24  2  0  0  0  0
 23 28  1  0  0  0  0
 24 25  1  0  0  0  0
 25 26  2  0  0  0  0
 26 27  1  0  0  0  0
 27 28  2  0  0  0  0
M  END
$$$$

 OpenBabel12191814062D

 29 30  0  0  0  0  0  0  0  0999 V2000
   -0.2211   -1.2671    0.0000 C   0  0  0  0  0  0  0  0  0  0  0  0
    0.1914   -1.9816    0.0000 C   0  0  0  0  0  0  0  0  0  0  0  0
    1.0164   -1.9816    0.0000 C   0  0  0  0  0  0  0  0  0  0  0  0
    1.4289   -2.6961    0.0000 N   0  0  0  0  0  0  0  0  0  0  0  0
    1.0164   -3.4105    0.0000 C   0  0  0  0  0  0  0  0  0  0  0  0
    1.4289   -4.1250    0.0000 C   0  0  0  0  0  0  0  0  0  0  0  0
    1.0164   -4.8395    0.0000 C   0  0  0  0  0  0  0  0  0  0  0  0
    2.2539   -2.6961    0.0000 C   0  0  0  0  0  0  0  0  0  0  0  0
    2.6664   -3.4105    0.0000 C   0  0  3  0  0  0  0  0  0  0  0  0
    2.2539   -4.1250    0.0000 O   0  0  0  0  0  0  0  0  0  0  0  0
    3.4914   -3.4105    0.0000 C   0  0  0  0  0  0  0  0  0  0  0  0
    3.9039   -4.1250    0.0000 O   0  0  0  0  0  0  0  0  0  0  0  0
    4.7289   -4.1250    0.0000 C   0  0  0  0  0  0  0  0  0  0  0  0
    5.1414   -3.4105    0.0000 C   0  0  0  0  0  0  0  0  0  0  0  0
    5.9664   -3.4105    0.0000 C   0  0  0  0  0  0  0  0  0  0  0  0
    6.3789   -4.1250    0.0000 C   0  0  0  0  0  0  0  0  0  0  0  0
    7.2039   -4.1250    0.0000 O   0  0  0  0  0  0  0  0  0  0  0  0
    5.9664   -4.8395    0.0000 C   0  0  0  0  0  0  0  0  0  0  0  0
    5.1414   -4.8395    0.0000 C   0  0  0  0  0  0  0  0  0  0  0  0
    4.7289   -5.5539    0.0000 C   0  0  0  0  0  0  0  0  0  0  0  0
    5.1414   -6.2684    0.0000 O   0  0  0  0  0  0  0  0  0  0  0  0
    3.9039   -5.5539    0.0000 C   0  0  0  0  0  0  0  0  0  0  0  0
    3.4914   -6.2684    0.0000 C   0  0  0  0  0  0  0  0  0  0  0  0
    3.9039   -6.9829    0.0000 C   0  0  0  0  0  0  0  0  0  0  0  0
    4.7289   -6.9829    0.0000 C   0  0  0  0  0  0  0  0  0  0  0  0
    5.1414   -7.6974    0.0000 C   0  0  0  0  0  0  0  0  0  0  0  0
    4.7289   -8.4118    0.0000 C   0  0  0  0  0  0  0  0  0  0  0  0
    3.9039   -8.4118    0.0000 C   0  0  0  0  0  0  0  0  0  0  0  0
    3.4914   -7.6974    0.0000 C   0  0  0  0  0  0  0  0  0  0  0  0
  1  2  1  0  0  0  0
  2  3  1  0  0  0  0
  3  4  1  0  0  0  0
  4  5  1  0  0  0  0
  4  8  1  0  0  0  0
  5  6  1  0  0  0  0
  6  7  1  0  0  0  0
  8  9  1  0  0  0  0
  9 10  1  0  0  0  0
  9 11  1  0  0  0  0
 11 12  1  0  0  0  0
 12 13  1  0  0  0  0
 13 14  2  0  0  0  0
 13 19  1  0  0  0  0
 14 15  1  0  0  0  0
 15 16  2  0  0  0  0
 16 17  1  0  0  0  0
 16 18  1  0  0  0  0
 18 19  2  0  0  0  0
 19 20  1  0  0  0  0
 20 21  2  0  0  0  0
 20 22  1  0  0  0  0
 22 23  1  0  0  0  0
 23 24  1  0  0  0  0
 24 25  2  0  0  0  0
 24 29  1  0  0  0  0
 25 26  1  0  0  0  0
 26 27  2  0  0  0  0
 27 28  1  0  0  0  0
 28 29  2  0  0  0  0
M  END
$$$$

 OpenBabel12191814062D

 29 30  0  0  0  0  0  0  0  0999 V2000
    1.2079    3.6829    0.0000 C   0  0  0  0  0  0  0  0  0  0  0  0
    1.6204    2.9684    0.0000 C   0  0  0  0  0  0  0  0  0  0  0  0
    2.4454    2.9684    0.0000 C   0  0  0  0  0  0  0  0  0  0  0  0
    2.8579    2.2539    0.0000 N   0  0  0  0  0  0  0  0  0  0  0  0
    2.4454    1.5395    0.0000 C   0  0  0  0  0  0  0  0  0  0  0  0
    2.8579    0.8250    0.0000 C   0  0  0  0  0  0  0  0  0  0  0  0
    2.4454    0.1105    0.0000 C   0  0  0  0  0  0  0  0  0  0  0  0
    3.6829    2.2539    0.0000 C   0  0  0  0  0  0  0  0  0  0  0  0
    4.0954    1.5395    0.0000 C   0  0  3  0  0  0  0  0  0  0  0  0
    3.6829    0.8250    0.0000 O   0  0  0  0  0  0  0  0  0  0  0  0
    4.9204    1.5395    0.0000 C   0  0  0  0  0  0  0  0  0  0  0  0
    5.3329    0.8250    0.0000 O   0  0  0  0  0  0  0  0  0  0  0  0
    6.1579    0.8250    0.0000 C   0  0  0  0  0  0  0  0  0  0  0  0
    6.5704    1.5395    0.0000 C   0  0  0  0  0  0  0  0  0  0  0  0
    7.3954    1.5395    0.0000 C   0  0  0  0  0  0  0  0  0  0  0  0
    7.8079    0.8250    0.0000 C   0  0  0  0  0  0  0  0  0  0  0  0
    7.3954    0.1105    0.0000 C   0  0  0  0  0  0  0  0  0  0  0  0
    6.5704    0.1105    0.0000 C   0  0  0  0  0  0  0  0  0  0  0  0
    6.1579   -0.6039    0.0000 C   0  0  3  0  0  0  0  0  0  0  0  0
    5.3329   -0.6039    0.0000 C   0  0  0  0  0  0  0  0  0  0  0  0
    4.9204   -1.3184    0.0000 C   0  0  0  0  0  0  0  0  0  0  0  0
    4.0954   -1.3184    0.0000 C   0  0  0  0  0  0  0  0  0  0  0  0
    3.6829   -2.0329    0.0000 C   0  0  0  0  0  0  0  0  0  0  0  0
    2.8579   -2.0329    0.0000 C   0  0  0  0  0  0  0  0  0  0  0  0
    2.4454   -1.3184    0.0000 C   0  0  0  0  0  0  0  0  0  0  0  0
    2.8579   -0.6039    0.0000 C   0  0  0  0  0  0  0  0  0  0  0  0
    3.6829   -0.6039    0.0000 C   0  0  0  0  0  0  0  0  0  0  0  0
    6.5704   -1.3184    0.0000 O   0  0  0  0  0  0  0  0  0  0  0  0
    6.1579   -2.0329    0.0000 C   0  0  0  0  0  0  0  0  0  0  0  0
  1  2  1  0  0  0  0
  2  3  1  0  0  0  0
  3  4  1  0  0  0  0
  4  5  1  0  0  0  0
  4  8  1  0  0  0  0
  5  6  1  0  0  0  0
  6  7  1  0  0  0  0
  8  9  1  0  0  0  0
  9 10  1  0  0  0  0
  9 11  1  0  0  0  0
 11 12  1  0  0  0  0
 12 13  1  0  0  0  0
 13 14  2  0  0  0  0
 13 18  1  0  0  0  0
 14 15  1  0  0  0  0
 15 16  2  0  0  0  0
 16 17  1  0  0  0  0
 17 18  2  0  0  0  0
 18 19  1  0  0  0  0
 19 20  1  0  0  0  0
 19 28  1  0  0  0  0
 20 21  1  0  0  0  0
 21 22  1  0  0  0  0
 22 23  2  0  0  0  0
 22 27  1  0  0  0  0
 23 24  1  0  0  0  0
 24 25  2  0  0  0  0
 25 26  1  0  0  0  0
 26 27  2  0  0  0  0
 28 29  1  0  0  0  0
M  END
$$$$

 OpenBabel12191814062D

 28 29  0  0  0  0  0  0  0  0999 V2000
   -0.2211   -1.2671    0.0000 C   0  0  0  0  0  0  0  0  0  0  0  0
    0.1914   -1.9816    0.0000 C   0  0  0  0  0  0  0  0  0  0  0  0
    1.0164   -1.9816    0.0000 C   0  0  0  0  0  0  0  0  0  0  0  0
    1.4289   -2.6961    0.0000 N   0  0  0  0  0  0  0  0  0  0  0  0
    1.0164   -3.4105    0.0000 C   0  0  0  0  0  0  0  0  0  0  0  0
    1.4289   -4.1250    0.0000 C   0  0  0  0  0  0  0  0  0  0  0  0
    1.0164   -4.8395    0.0000 C   0  0  0  0  0  0  0  0  0  0  0  0
    2.2539   -2.6961    0.0000 C   0  0  0  0  0  0  0  0  0  0  0  0
    2.6664   -3.4105    0.0000 C   0  0  3  0  0  0  0  0  0  0  0  0
    2.2539   -4.1250    0.0000 O   0  0  0  0  0  0  0  0  0  0  0  0
    3.4914   -3.4105    0.0000 C   0  0  0  0  0  0  0  0  0  0  0  0
    3.9039   -4.1250    0.0000 O   0  0  0  0  0  0  0  0  0  0  0  0
    4.7289   -4.1250    0.0000 C   0  0  0  0  0  0  0  0  0  0  0  0
    5.1414   -3.4105    0.0000 C   0  0  0  0  0  0  0  0  0  0  0  0
    5.9664   -3.4105    0.0000 C   0  0  0  0  0  0  0  0  0  0  0  0
    6.3789   -4.1250    0.0000 C   0  0  0  0  0  0  0  0  0  0  0  0
    5.9664   -4.8395    0.0000 C   0  0  0  0  0  0  0  0  0  0  0  0
    5.1414   -4.8395    0.0000 C   0  0  0  0  0  0  0  0  0  0  0  0
    4.7289   -5.5539    0.0000 C   0  0  3  0  0  0  0  0  0  0  0  0
    5.1414   -6.2684    0.0000 O   0  0  0  0  0  0  0  0  0  0  0  0
    3.9039   -5.5539    0.0000 C   0  0  0  0  0  0  0  0  0  0  0  0
    3.4914   -6.2684    0.0000 C   0  0  0  0  0  0  0  0  0  0  0  0
    3.9039   -6.9829    0.0000 C   0  0  0  0  0  0  0  0  0  0  0  0
    4.7289   -6.9829    0.0000 C   0  0  0  0  0  0  0  0  0  0  0  0
    5.1414   -7.6974    0.0000 C   0  0  0  0  0  0  0  0  0  0  0  0
    4.7289   -8.4118    0.0000 C   0  0  0  0  0  0  0  0  0  0  0  0
    3.9039   -8.4118    0.0000 C   0  0  0  0  0  0  0  0  0  0  0  0
    3.4914   -7.6974    0.0000 C   0  0  0  0  0  0  0  0  0  0  0  0
  1  2  1  0  0  0  0
  2  3  1  0  0  0  0
  3  4  1  0  0  0  0
  4  5  1  0  0  0  0
  4  8  1  0  0  0  0
  5  6  1  0  0  0  0
  6  7  1  0  0  0  0
  8  9  1  0  0  0  0
  9 10  1  0  0  0  0
  9 11  1  0  0  0  0
 11 12  1  0  0  0  0
 12 13  1  0  0  0  0
 13 14  2  0  0  0  0
 13 18  1  0  0  0  0
 14 15  1  0  0  0  0
 15 16  2  0  0  0  0
 16 17  1  0  0  0  0
 17 18  2  0  0  0  0
 18 19  1  0  0  0  0
 19 20  1  0  0  0  0
 19 21  1  0  0  0  0
 21 22  1  0  0  0  0
 22 23  1  0  0  0  0
 23 24  2  0  0  0  0
 23 28  1  0  0  0  0
 24 25  1  0  0  0  0
 25 26  2  0  0  0  0
 26 27  1  0  0  0  0
 27 28  2  0  0  0  0
M  END
$$$$

 OpenBabel12191814062D

 39 44  0  0  0  0  0  0  0  0999 V2000
   -0.4043    6.9291    0.0000 C   0  0  0  0  0  0  0  0  0  0  0  0
    0.4026    7.1006    0.0000 C   0  0  0  0  0  0  0  0  0  0  0  0
    0.9547    6.4875    0.0000 C   0  0  0  0  0  0  0  0  0  0  0  0
    1.7616    6.6590    0.0000 N   0  0  0  0  0  0  0  0  0  0  0  0
    2.0972    7.4127    0.0000 C   0  0  0  0  0  0  0  0  0  0  0  0
    2.9177    7.3265    0.0000 N   0  0  0  0  0  0  0  0  0  0  0  0
    3.0892    6.5195    0.0000 C   0  0  0  0  0  0  0  0  0  0  0  0
    3.8037    6.1070    0.0000 C   0  0  0  0  0  0  0  0  0  0  0  0
    4.5181    6.5195    0.0000 N   0  0  0  0  0  0  0  0  0  0  0  0
    5.2326    6.1070    0.0000 C   0  0  0  0  0  0  0  0  0  0  0  0
    5.9471    6.5195    0.0000 C   0  0  0  0  0  0  0  0  0  0  0  0
    6.6616    6.1070    0.0000 C   0  0  0  0  0  0  0  0  0  0  0  0
    3.8037    5.2820    0.0000 N   0  0  0  0  0  0  0  0  0  0  0  0
    3.0892    4.8695    0.0000 C   0  0  0  0  0  0  0  0  0  0  0  0
    2.3747    5.2820    0.0000 N   0  0  0  0  0  0  0  0  0  0  0  0
    2.3747    6.1070    0.0000 C   0  0  0  0  0  0  0  0  0  0  0  0
    3.0892    4.0445    0.0000 N   0  0  0  0  0  0  0  0  0  0  0  0
    3.8037    3.6320    0.0000 C   0  0  0  0  0  0  0  0  0  0  0  0
    3.8037    2.8070    0.0000 C   0  0  0  0  0  0  0  0  0  0  0  0
    3.0892    2.3945    0.0000 C   0  0  0  0  0  0  0  0  0  0  0  0
    2.3747    2.8070    0.0000 C   0  0  0  0  0  0  0  0  0  0  0  0
    2.3747    3.6320    0.0000 C   0  0  0  0  0  0  0  0  0  0  0  0
    3.0892    1.5695    0.0000 N   0  0  0  0  0  0  0  0  0  0  0  0
    3.8037    1.1570    0.0000 C   0  0  0  0  0  0  0  0  0  0  0  0
    3.8037    0.3320    0.0000 C   0  0  0  0  0  0  0  0  0  0  0  0
    4.5470   -0.0260    0.0000 C   0  0  0  0  0  0  0  0  0  0  0  0
    5.1517    0.5352    0.0000 C   0  0  0  0  0  0  0  0  0  0  0  0
    5.9401    0.2920    0.0000 C   0  0  0  0  0  0  0  0  0  0  0  0
    6.1237   -0.5123    0.0000 C   0  0  0  0  0  0  0  0  0  0  0  0
    5.5189   -1.0735    0.0000 C   0  0  0  0  0  0  0  0  0  0  0  0
    4.7305   -0.8303    0.0000 C   0  0  0  0  0  0  0  0  0  0  0  0
    4.2162   -1.4753    0.0000 C   0  0  0  0  0  0  0  0  0  0  0  0
    3.3912   -1.4753    0.0000 C   0  0  0  0  0  0  0  0  0  0  0  0
    2.8768   -0.8303    0.0000 C   0  0  0  0  0  0  0  0  0  0  0  0
    2.0884   -1.0735    0.0000 C   0  0  0  0  0  0  0  0  0  0  0  0
    1.4837   -0.5123    0.0000 C   0  0  0  0  0  0  0  0  0  0  0  0
    1.6673    0.2920    0.0000 C   0  0  0  0  0  0  0  0  0  0  0  0
    2.4556    0.5352    0.0000 C   0  0  0  0  0  0  0  0  0  0  0  0
    3.0604   -0.0260    0.0000 C   0  0  0  0  0  0  0  0  0  0  0  0
  1  2  1  0  0  0  0
  2  3  1  0  0  0  0
  3  4  1  0  0  0  0
  4  5  1  0  0  0  0
  4 16  1  0  0  0  0
  5  6  2  0  0  0  0
  6  7  1  0  0  0  0
  7  8  2  0  0  0  0
  7 16  1  0  0  0  0
  8  9  1  0  0  0  0
  8 13  1  0  0  0  0
  9 10  1  0  0  0  0
 10 11  1  0  0  0  0
 11 12  2  0  0  0  0
 13 14  2  0  0  0  0
 14 15  1  0  0  0  0
 14 17  1  0  0  0  0
 15 16  2  0  0  0  0
 17 18  1  0  0  0  0
 17 22  1  0  0  0  0
 18 19  1  0  0  0  0
 19 20  1  0  0  0  0
 20 21  1  0  0  0  0
 20 23  1  0  0  0  0
 21 22  1  0  0  0  0
 23 24  1  0  0  0  0
 24 25  1  0  0  0  0
 25 26  1  0  0  0  0
 25 39  1  0  0  0  0
 26 27  2  0  0  0  0
 26 31  1  0  0  0  0
 27 28  1  0  0  0  0
 28 29  2  0  0  0  0
 29 30  1  0  0  0  0
 30 31  2  0  0  0  0
 31 32  1  0  0  0  0
 32 33  1  0  0  0  0
 33 34  1  0  0  0  0
 34 35  2  0  0  0  0
 34 39  1  0  0  0  0
 35 36  1  0  0  0  0
 36 37  2  0  0  0  0
 37 38  1  0  0  0  0
 38 39  2  0  0  0  0
M  END
$$$$

 OpenBabel12191814062D

 39 44  0  0  0  0  0  0  0  0999 V2000
    5.2326    8.5820    0.0000 C   0  0  0  0  0  0  0  0  0  0  0  0
    5.2326    7.7570    0.0000 C   0  0  0  0  0  0  0  0  0  0  0  0
    4.5181    7.3445    0.0000 C   0  0  0  0  0  0  0  0  0  0  0  0
    4.5181    6.5195    0.0000 N   0  0  0  0  0  0  0  0  0  0  0  0
    3.8037    6.1070    0.0000 C   0  0  0  0  0  0  0  0  0  0  0  0
    3.8037    5.2820    0.0000 N   0  0  0  0  0  0  0  0  0  0  0  0
    3.0892    4.8695    0.0000 C   0  0  0  0  0  0  0  0  0  0  0  0
    2.3747    5.2820    0.0000 N   0  0  0  0  0  0  0  0  0  0  0  0
    2.3747    6.1070    0.0000 C   0  0  0  0  0  0  0  0  0  0  0  0
    1.7616    6.6590    0.0000 N   0  0  0  0  0  0  0  0  0  0  0  0
    0.9547    6.4875    0.0000 C   0  0  0  0  0  0  0  0  0  0  0  0
    0.6997    5.7029    0.0000 C   0  0  0  0  0  0  0  0  0  0  0  0
   -0.1073    5.5313    0.0000 C   0  0  0  0  0  0  0  0  0  0  0  0
    2.0972    7.4127    0.0000 C   0  0  0  0  0  0  0  0  0  0  0  0
    2.9177    7.3265    0.0000 N   0  0  0  0  0  0  0  0  0  0  0  0
    3.0892    6.5195    0.0000 C   0  0  0  0  0  0  0  0  0  0  0  0
    3.0892    4.0445    0.0000 N   0  0  0  0  0  0  0  0  0  0  0  0
    3.8037    3.6320    0.0000 C   0  0  0  0  0  0  0  0  0  0  0  0
    3.8037    2.8070    0.0000 C   0  0  0  0  0  0  0  0  0  0  0  0
    3.0892    2.3945    0.0000 C   0  0  0  0  0  0  0  0  0  0  0  0
    2.3747    2.8070    0.0000 C   0  0  0  0  0  0  0  0  0  0  0  0
    2.3747    3.6320    0.0000 C   0  0  0  0  0  0  0  0  0  0  0  0
    3.0892    1.5695    0.0000 N   0  0  0  0  0  0  0  0  0  0  0  0
    3.8037    1.1570    0.0000 C   0  0  0  0  0  0  0  0  0  0  0  0
    3.8037    0.3320    0.0000 C   0  0  0  0  0  0  0  0  0  0  0  0
    4.5470   -0.0260    0.0000 C   0  0  0  0  0  0  0  0  0  0  0  0
    5.1517    0.5352    0.0000 C   0  0  0  0  0  0  0  0  0  0  0  0
    5.9401    0.2920    0.0000 C   0  0  0  0  0  0  0  0  0  0  0  0
    6.1237   -0.5123    0.0000 C   0  0  0  0  0  0  0  0  0  0  0  0
    5.5189   -1.0735    0.0000 C   0  0  0  0  0  0  0  0  0  0  0  0
    4.7305   -0.8303    0.0000 C   0  0  0  0  0  0  0  0  0  0  0  0
    4.2162   -1.4753    0.0000 C   0  0  0  0  0  0  0  0  0  0  0  0
    3.3912   -1.4753    0.0000 C   0  0  0  0  0  0  0  0  0  0  0  0
    2.8768   -0.8303    0.0000 C   0  0  0  0  0  0  0  0  0  0  0  0
    2.0884   -1.0735    0.0000 C   0  0  0  0  0  0  0  0  0  0  0  0
    1.4837   -0.5123    0.0000 C   0  0  0  0  0  0  0  0  0  0  0  0
    1.6673    0.2920    0.0000 C   0  0  0  0  0  0  0  0  0  0  0  0
    2.4556    0.5352    0.0000 C   0  0  0  0  0  0  0  0  0  0  0  0
    3.0604   -0.0260    0.0000 C   0  0  0  0  0  0  0  0  0  0  0  0
  1  2  1  0  0  0  0
  2  3  1  0  0  0  0
  3  4  1  0  0  0  0
  4  5  1  0  0  0  0
  5  6  2  0  0  0  0
  5 16  1  0  0  0  0
  6  7  1  0  0  0  0
  7  8  2  0  0  0  0
  7 17  1  0  0  0  0
  8  9  1  0  0  0  0
  9 10  1  0  0  0  0
  9 16  2  0  0  0  0
 10 11  1  0  0  0  0
 10 14  1  0  0  0  0
 11 12  1  0  0  0  0
 12 13  1  0  0  0  0
 14 15  2  0  0  0  0
 15 16  1  0  0  0  0
 17 18  1  0  0  0  0
 17 22  1  0  0  0  0
 18 19  1  0  0  0  0
 19 20  1  0  0  0  0
 20 21  1  0  0  0  0
 20 23  1  0  0  0  0
 21 22  1  0  0  0  0
 23 24  1  0  0  0  0
 24 25  1  0  0  0  0
 25 26  1  0  0  0  0
 25 39  1  0  0  0  0
 26 27  2  0  0  0  0
 26 31  1  0  0  0  0
 27 28  1  0  0  0  0
 28 29  2  0  0  0  0
 29 30  1  0  0  0  0
 30 31  2  0  0  0  0
 31 32  1  0  0  0  0
 32 33  1  0  0  0  0
 33 34  1  0  0  0  0
 34 35  2  0  0  0  0
 34 39  1  0  0  0  0
 35 36  1  0  0  0  0
 36 37  2  0  0  0  0
 37 38  1  0  0  0  0
 38 39  2  0  0  0  0
M  END
$$$$

 OpenBabel12191814062D

 36 39  0  0  0  0  0  0  0  0999 V2000
   -2.1434    3.7125    0.0000 C   0  0  0  0  0  0  0  0  0  0  0  0
   -2.8579    3.3000    0.0000 C   0  0  0  0  0  0  0  0  0  0  0  0
   -2.8579    2.4750    0.0000 C   0  0  0  0  0  0  0  0  0  0  0  0
   -3.5724    2.0625    0.0000 N   0  0  0  0  0  0  0  0  0  0  0  0
   -3.5724    1.2375    0.0000 C   0  0  0  0  0  0  0  0  0  0  0  0
   -2.8579    0.8250    0.0000 N   0  0  0  0  0  0  0  0  0  0  0  0
   -2.8579   -0.0000    0.0000 C   0  0  0  0  0  0  0  0  0  0  0  0
   -2.1434   -0.4125    0.0000 N   0  0  0  0  0  0  0  0  0  0  0  0
   -2.1434   -1.2375    0.0000 C   0  0  0  0  0  0  0  0  0  0  0  0
   -1.4289   -1.6500    0.0000 C   0  0  0  0  0  0  0  0  0  0  0  0
   -1.4289   -2.4750    0.0000 C   0  0  0  0  0  0  0  0  0  0  0  0
   -3.5724   -0.4125    0.0000 N   0  0  0  0  0  0  0  0  0  0  0  0
   -4.2868   -0.0000    0.0000 C   0  0  0  0  0  0  0  0  0  0  0  0
   -4.2868    0.8250    0.0000 N   0  0  0  0  0  0  0  0  0  0  0  0
   -5.0013   -0.4125    0.0000 N   0  0  0  0  0  0  0  0  0  0  0  0
   -5.0013   -1.2375    0.0000 C   0  0  0  0  0  0  0  0  0  0  0  0
   -5.7158   -1.6500    0.0000 C   0  0  0  0  0  0  0  0  0  0  0  0
   -6.4302   -1.2375    0.0000 C   0  0  0  0  0  0  0  0  0  0  0  0
   -6.4302   -0.4125    0.0000 C   0  0  0  0  0  0  0  0  0  0  0  0
   -5.7158   -0.0000    0.0000 C   0  0  0  0  0  0  0  0  0  0  0  0
   -7.1447   -1.6500    0.0000 N   0  0  0  0  0  0  0  0  0  0  0  0
   -7.1447   -2.4750    0.0000 C   0  0  0  0  0  0  0  0  0  0  0  0
   -7.8592   -2.8875    0.0000 C   0  0  0  0  0  0  0  0  0  0  0  0
   -7.8592   -3.7125    0.0000 C   0  0  0  0  0  0  0  0  0  0  0  0
   -8.5737   -4.1250    0.0000 C   0  0  0  0  0  0  0  0  0  0  0  0
   -9.2881   -3.7125    0.0000 C   0  0  0  0  0  0  0  0  0  0  0  0
  -10.0026   -4.1250    0.0000 F   0  0  0  0  0  0  0  0  0  0  0  0
   -9.2881   -2.8875    0.0000 C   0  0  0  0  0  0  0  0  0  0  0  0
   -8.5737   -2.4750    0.0000 C   0  0  0  0  0  0  0  0  0  0  0  0
   -6.4302   -2.8875    0.0000 C   0  0  0  0  0  0  0  0  0  0  0  0
   -5.7158   -2.4750    0.0000 C   0  0  0  0  0  0  0  0  0  0  0  0
   -5.0013   -2.8875    0.0000 C   0  0  0  0  0  0  0  0  0  0  0  0
   -5.0013   -3.7125    0.0000 C   0  0  0  0  0  0  0  0  0  0  0  0
   -4.2868   -4.1250    0.0000 F   0  0  0  0  0  0  0  0  0  0  0  0
   -5.7158   -4.1250    0.0000 C   0  0  0  0  0  0  0  0  0  0  0  0
   -6.4302   -3.7125    0.0000 C   0  0  0  0  0  0  0  0  0  0  0  0
  1  2  1  0  0  0  0
  2  3  1  0  0  0  0
  3  4  1  0  0  0  0
  4  5  1  0  0  0  0
  5  6  2  0  0  0  0
  5 14  1  0  0  0  0
  6  7  1  0  0  0  0
  7  8  1  0  0  0  0
  7 12  2  0  0  0  0
  8  9  1  0  0  0  0
  9 10  1  0  0  0  0
 10 11  2  0  0  0  0
 12 13  1  0  0  0  0
 13 14  2  0  0  0  0
 13 15  1  0  0  0  0
 15 16  1  0  0  0  0
 15 20  1  0  0  0  0
 16 17  1  0  0  0  0
 17 18  1  0  0  0  0
 18 19  1  0  0  0  0
 18 21  1  0  0  0  0
 19 20  1  0  0  0  0
 21 22  1  0  0  0  0
 22 23  1  0  0  0  0
 22 30  1  0  0  0  0
 23 24  2  0  0  0  0
 23 29  1  0  0  0  0
 24 25  1  0  0  0  0
 25 26  2  0  0  0  0
 26 27  1  0  0  0  0
 26 28  1  0  0  0  0
 28 29  2  0  0  0  0
 30 31  2  0  0  0  0
 30 36  1  0  0  0  0
 31 32  1  0  0  0  0
 32 33  2  0  0  0  0
 33 34  1  0  0  0  0
 33 35  1  0  0  0  0
 35 36  2  0  0  0  0
M  END
$$$$

 OpenBabel12191814062D

 35 38  0  0  0  0  0  0  0  0999 V2000
    6.4302   -1.2375    0.0000 C   0  0  0  0  0  0  0  0  0  0  0  0
    5.7158   -1.6500    0.0000 C   0  0  0  0  0  0  0  0  0  0  0  0
    5.7158   -2.4750    0.0000 C   0  0  0  0  0  0  0  0  0  0  0  0
    5.0013   -2.8875    0.0000 N   0  0  0  0  0  0  0  0  0  0  0  0
    5.0013   -3.7125    0.0000 C   0  0  0  0  0  0  0  0  0  0  0  0
    5.7158   -4.1250    0.0000 N   0  0  0  0  0  0  0  0  0  0  0  0
    5.7158   -4.9500    0.0000 C   0  0  0  0  0  0  0  0  0  0  0  0
    6.4302   -5.3625    0.0000 N   0  0  0  0  0  0  0  0  0  0  0  0
    6.4302   -6.1875    0.0000 C   0  0  0  0  0  0  0  0  0  0  0  0
    7.1447   -6.6000    0.0000 C   0  0  0  0  0  0  0  0  0  0  0  0
    7.1447   -7.4250    0.0000 C   0  0  0  0  0  0  0  0  0  0  0  0
    5.0013   -5.3625    0.0000 N   0  0  0  0  0  0  0  0  0  0  0  0
    4.2868   -4.9500    0.0000 C   0  0  0  0  0  0  0  0  0  0  0  0
    4.2868   -4.1250    0.0000 N   0  0  0  0  0  0  0  0  0  0  0  0
    3.5724   -5.3625    0.0000 N   0  0  0  0  0  0  0  0  0  0  0  0
    3.5724   -6.1875    0.0000 C   0  0  0  0  0  0  0  0  0  0  0  0
    2.8579   -6.6000    0.0000 C   0  0  0  0  0  0  0  0  0  0  0  0
    2.1434   -6.1875    0.0000 C   0  0  0  0  0  0  0  0  0  0  0  0
    2.1434   -5.3625    0.0000 C   0  0  0  0  0  0  0  0  0  0  0  0
    2.8579   -4.9500    0.0000 C   0  0  0  0  0  0  0  0  0  0  0  0
    1.4289   -6.6000    0.0000 N   0  0  0  0  0  0  0  0  0  0  0  0
    0.7145   -6.1875    0.0000 C   0  0  0  0  0  0  0  0  0  0  0  0
    0.0000   -6.6000    0.0000 C   0  0  0  0  0  0  0  0  0  0  0  0
    0.0000   -7.4250    0.0000 C   0  0  0  0  0  0  0  0  0  0  0  0
    0.7145   -7.8375    0.0000 C   0  0  0  0  0  0  0  0  0  0  0  0
    0.7145   -8.6625    0.0000 C   0  0  0  0  0  0  0  0  0  0  0  0
   -0.0000   -9.0750    0.0000 C   0  0  0  0  0  0  0  0  0  0  0  0
   -0.7145   -8.6625    0.0000 C   0  0  0  0  0  0  0  0  0  0  0  0
   -0.7145   -7.8375    0.0000 C   0  0  0  0  0  0  0  0  0  0  0  0
   -0.7145   -6.1875    0.0000 C   0  0  0  0  0  0  0  0  0  0  0  0
   -1.4289   -6.6000    0.0000 C   0  0  0  0  0  0  0  0  0  0  0  0
   -2.1434   -6.1875    0.0000 C   0  0  0  0  0  0  0  0  0  0  0  0
   -2.1434   -5.3625    0.0000 C   0  0  0  0  0  0  0  0  0  0  0  0
   -1.4289   -4.9500    0.0000 C   0  0  0  0  0  0  0  0  0  0  0  0
   -0.7145   -5.3625    0.0000 C   0  0  0  0  0  0  0  0  0  0  0  0
  1  2  1  0  0  0  0
  2  3  1  0  0  0  0
  3  4  1  0  0  0  0
  4  5  1  0  0  0  0
  5  6  2  0  0  0  0
  5 14  1  0  0  0  0
  6  7  1  0  0  0  0
  7  8  1  0  0  0  0
  7 12  2  0  0  0  0
  8  9  1  0  0  0  0
  9 10  1  0  0  0  0
 10 11  2  0  0  0  0
 12 13  1  0  0  0  0
 13 14  2  0  0  0  0
 13 15  1  0  0  0  0
 15 16  1  0  0  0  0
 15 20  1  0  0  0  0
 16 17  1  0  0  0  0
 17 18  1  0  0  0  0
 18 19  1  0  0  0  0
 18 21  1  0  0  0  0
 19 20  1  0  0  0  0
 21 22  1  0  0  0  0
 22 23  1  0  0  0  0
 23 24  1  0  0  0  0
 23 30  1  0  0  0  0
 24 25  2  0  0  0  0
 24 29  1  0  0  0  0
 25 26  1  0  0  0  0
 26 27  2  0  0  0  0
 27 28  1  0  0  0  0
 28 29  2  0  0  0  0
 30 31  2  0  0  0  0
 30 35  1  0  0  0  0
 31 32  1  0  0  0  0
 32 33  2  0  0  0  0
 33 34  1  0  0  0  0
 34 35  2  0  0  0  0
M  END
$$$$

 OpenBabel12191814062D

 37 41  0  0  0  0  0  0  0  0999 V2000
    0.9458    8.5820    0.0000 C   0  0  0  0  0  0  0  0  0  0  0  0
    0.9458    7.7570    0.0000 C   0  0  0  0  0  0  0  0  0  0  0  0
    1.6603    7.3445    0.0000 C   0  0  0  0  0  0  0  0  0  0  0  0
    1.6603    6.5195    0.0000 N   0  0  0  0  0  0  0  0  0  0  0  0
    2.3747    6.1070    0.0000 C   0  0  0  0  0  0  0  0  0  0  0  0
    3.0892    6.5195    0.0000 N   0  0  0  0  0  0  0  0  0  0  0  0
    3.8037    6.1070    0.0000 C   0  0  0  0  0  0  0  0  0  0  0  0
    4.5181    6.5195    0.0000 N   0  0  0  0  0  0  0  0  0  0  0  0
    5.2326    6.1070    0.0000 C   0  0  0  0  0  0  0  0  0  0  0  0
    5.9471    6.5195    0.0000 C   0  0  0  0  0  0  0  0  0  0  0  0
    6.6616    6.1070    0.0000 C   0  0  0  0  0  0  0  0  0  0  0  0
    3.8037    5.2820    0.0000 N   0  0  0  0  0  0  0  0  0  0  0  0
    3.0892    4.8695    0.0000 C   0  0  0  0  0  0  0  0  0  0  0  0
    2.3747    5.2820    0.0000 N   0  0  0  0  0  0  0  0  0  0  0  0
    3.0892    4.0445    0.0000 N   0  0  0  0  0  0  0  0  0  0  0  0
    3.8037    3.6320    0.0000 C   0  0  0  0  0  0  0  0  0  0  0  0
    3.8037    2.8070    0.0000 C   0  0  0  0  0  0  0  0  0  0  0  0
    3.0892    2.3945    0.0000 C   0  0  0  0  0  0  0  0  0  0  0  0
    2.3747    2.8070    0.0000 C   0  0  0  0  0  0  0  0  0  0  0  0
    2.3747    3.6320    0.0000 C   0  0  0  0  0  0  0  0  0  0  0  0
    3.0892    1.5695    0.0000 N   0  0  0  0  0  0  0  0  0  0  0  0
    3.8037    1.1570    0.0000 C   0  0  0  0  0  0  0  0  0  0  0  0
    3.8037    0.3320    0.0000 C   0  0  0  0  0  0  0  0  0  0  0  0
    4.5470   -0.0260    0.0000 C   0  0  0  0  0  0  0  0  0  0  0  0
    5.1517    0.5352    0.0000 C   0  0  0  0  0  0  0  0  0  0  0  0
    5.9401    0.2920    0.0000 C   0  0  0  0  0  0  0  0  0  0  0  0
    6.1237   -0.5123    0.0000 C   0  0  0  0  0  0  0  0  0  0  0  0
    5.5189   -1.0735    0.0000 C   0  0  0  0  0  0  0  0  0  0  0  0
    4.7305   -0.8303    0.0000 C   0  0  0  0  0  0  0  0  0  0  0  0
    4.2162   -1.4753    0.0000 C   0  0  0  0  0  0  0  0  0  0  0  0
    3.3912   -1.4753    0.0000 C   0  0  0  0  0  0  0  0  0  0  0  0
    2.8768   -0.8303    0.0000 C   0  0  0  0  0  0  0  0  0  0  0  0
    2.0884   -1.0735    0.0000 C   0  0  0  0  0  0  0  0  0  0  0  0
    1.4837   -0.5123    0.0000 C   0  0  0  0  0  0  0  0  0  0  0  0
    1.6673    0.2920    0.0000 C   0  0  0  0  0  0  0  0  0  0  0  0
    2.4556    0.5352    0.0000 C   0  0  0  0  0  0  0  0  0  0  0  0
    3.0604   -0.0260    0.0000 C   0  0  0  0  0  0  0  0  0  0  0  0
  1  2  1  0  0  0  0
  2  3  1  0  0  0  0
  3  4  1  0  0  0  0
  4  5  1  0  0  0  0
  5  6  2  0  0  0  0
  5 14  1  0  0  0  0
  6  7  1  0  0  0  0
  7  8  1  0  0  0  0
  7 12  2  0  0  0  0
  8  9  1  0  0  0  0
  9 10  1  0  0  0  0
 10 11  2  0  0  0  0
 12 13  1  0  0  0  0
 13 14  2  0  0  0  0
 13 15  1  0  0  0  0
 15 16  1  0  0  0  0
 15 20  1  0  0  0  0
 16 17  1  0  0  0  0
 17 18  1  0  0  0  0
 18 19  1  0  0  0  0
 18 21  1  0  0  0  0
 19 20  1  0  0  0  0
 21 22  1  0  0  0  0
 22 23  1  0  0  0  0
 23 24  1  0  0  0  0
 23 37  1  0  0  0  0
 24 25  2  0  0  0  0
 24 29  1  0  0  0  0
 25 26  1  0  0  0  0
 26 27  2  0  0  0  0
 27 28  1  0  0  0  0
 28 29  2  0  0  0  0
 29 30  1  0  0  0  0
 30 31  1  0  0  0  0
 31 32  1  0  0  0  0
 32 33  2  0  0  0  0
 32 37  1  0  0  0  0
 33 34  1  0  0  0  0
 34 35  2  0  0  0  0
 35 36  1  0  0  0  0
 36 37  2  0  0  0  0
M  END
$$$$

 OpenBabel12191814062D

 36 39  0  0  0  0  0  0  0  0999 V2000
   -3.5724    3.7125    0.0000 C   0  0  0  0  0  0  0  0  0  0  0  0
   -4.2868    3.3000    0.0000 C   0  0  0  0  0  0  0  0  0  0  0  0
   -4.2868    2.4750    0.0000 C   0  0  0  0  0  0  0  0  0  0  0  0
   -5.0013    2.0625    0.0000 N   0  0  0  0  0  0  0  0  0  0  0  0
   -5.0013    1.2375    0.0000 C   0  0  0  0  0  0  0  0  0  0  0  0
   -4.2868    0.8250    0.0000 N   0  0  0  0  0  0  0  0  0  0  0  0
   -4.2868   -0.0000    0.0000 C   0  0  0  0  0  0  0  0  0  0  0  0
   -3.5724   -0.4125    0.0000 N   0  0  0  0  0  0  0  0  0  0  0  0
   -3.5724   -1.2375    0.0000 C   0  0  0  0  0  0  0  0  0  0  0  0
   -2.8579   -1.6500    0.0000 C   0  0  0  0  0  0  0  0  0  0  0  0
   -2.8579   -2.4750    0.0000 C   0  0  0  0  0  0  0  0  0  0  0  0
   -5.0013   -0.4125    0.0000 N   0  0  0  0  0  0  0  0  0  0  0  0
   -5.7158   -0.0000    0.0000 C   0  0  0  0  0  0  0  0  0  0  0  0
   -5.7158    0.8250    0.0000 N   0  0  0  0  0  0  0  0  0  0  0  0
   -6.4302   -0.4125    0.0000 N   0  0  0  0  0  0  0  0  0  0  0  0
   -6.4302   -1.2375    0.0000 C   0  0  0  0  0  0  0  0  0  0  0  0
   -7.1447   -1.6500    0.0000 C   0  0  0  0  0  0  0  0  0  0  0  0
   -7.8592   -1.2375    0.0000 C   0  0  0  0  0  0  0  0  0  0  0  0
   -7.8592   -0.4125    0.0000 C   0  0  0  0  0  0  0  0  0  0  0  0
   -7.1447   -0.0000    0.0000 C   0  0  0  0  0  0  0  0  0  0  0  0
   -8.5737   -1.6500    0.0000 N   0  0  0  0  0  0  0  0  0  0  0  0
   -8.5737   -2.4750    0.0000 C   0  0  0  0  0  0  0  0  0  0  0  0
   -9.2881   -2.8875    0.0000 C   0  0  0  0  0  0  0  0  0  0  0  0
   -9.2881   -3.7125    0.0000 C   0  0  0  0  0  0  0  0  0  0  0  0
  -10.0026   -4.1250    0.0000 C   0  0  0  0  0  0  0  0  0  0  0  0
  -10.0026   -4.9500    0.0000 C   0  0  0  0  0  0  0  0  0  0  0  0
  -10.7171   -5.3625    0.0000 C   0  0  0  0  0  0  0  0  0  0  0  0
  -11.4315   -4.9500    0.0000 C   0  0  0  0  0  0  0  0  0  0  0  0
  -11.4315   -4.1250    0.0000 C   0  0  0  0  0  0  0  0  0  0  0  0
  -10.7171   -3.7125    0.0000 C   0  0  0  0  0  0  0  0  0  0  0  0
   -8.5737   -4.1250    0.0000 C   0  0  0  0  0  0  0  0  0  0  0  0
   -7.8592   -3.7125    0.0000 C   0  0  0  0  0  0  0  0  0  0  0  0
   -7.1447   -4.1250    0.0000 C   0  0  0  0  0  0  0  0  0  0  0  0
   -7.1447   -4.9500    0.0000 C   0  0  0  0  0  0  0  0  0  0  0  0
   -7.8592   -5.3625    0.0000 C   0  0  0  0  0  0  0  0  0  0  0  0
   -8.5737   -4.9500    0.0000 C   0  0  0  0  0  0  0  0  0  0  0  0
  1  2  1  0  0  0  0
  2  3  1  0  0  0  0
  3  4  1  0  0  0  0
  4  5  1  0  0  0  0
  5  6  2  0  0  0  0
  5 14  1  0  0  0  0
  6  7  1  0  0  0  0
  7  8  1  0  0  0  0
  7 12  2  0  0  0  0
  8  9  1  0  0  0  0
  9 10  1  0  0  0  0
 10 11  2  0  0  0  0
 12 13  1  0  0  0  0
 13 14  2  0  0  0  0
 13 15  1  0  0  0  0
 15 16  1  0  0  0  0
 15 20  1  0  0  0  0
 16 17  1  0  0  0  0
 17 18  1  0  0  0  0
 18 19  1  0  0  0  0
 18 21  1  0  0  0  0
 19 20  1  0  0  0  0
 21 22  1  0  0  0  0
 22 23  1  0  0  0  0
 23 24  1  0  0  0  0
 24 25  1  0  0  0  0
 24 31  1  0  0  0  0
 25 26  2  0  0  0  0
 25 30  1  0  0  0  0
 26 27  1  0  0  0  0
 27 28  2  0  0  0  0
 28 29  1  0  0  0  0
 29 30  2  0  0  0  0
 31 32  2  0  0  0  0
 31 36  1  0  0  0  0
 32 33  1  0  0  0  0
 33 34  2  0  0  0  0
 34 35  1  0  0  0  0
 35 36  2  0  0  0  0
M  END
$$$$

 OpenBabel12191814062D

 24 26  0  0  0  0  0  0  0  0999 V2000
    1.4045   -4.4656    0.0000 C   0  0  0  0  0  0  0  0  0  0  0  0
    2.1190   -4.8781    0.0000 C   0  0  0  0  0  0  0  0  0  0  0  0
    2.8334   -4.4656    0.0000 C   0  0  0  0  0  0  0  0  0  0  0  0
    3.5479   -4.8781    0.0000 N   0  0  0  0  0  0  0  0  0  0  0  0
    4.2624   -4.4656    0.0000 C   0  0  0  0  0  0  0  0  0  0  0  0
    4.9769   -4.8781    0.0000 C   0  0  3  0  0  0  0  0  0  0  0  0
    4.9769   -5.7031    0.0000 O   0  0  0  0  0  0  0  0  0  0  0  0
    5.6913   -4.4656    0.0000 C   0  0  0  0  0  0  0  0  0  0  0  0
    5.7776   -3.6451    0.0000 O   0  0  0  0  0  0  0  0  0  0  0  0
    6.5845   -3.4736    0.0000 C   0  0  0  0  0  0  0  0  0  0  0  0
    6.9970   -2.7591    0.0000 C   0  0  0  0  0  0  0  0  0  0  0  0
    7.8220   -2.7591    0.0000 C   0  0  0  0  0  0  0  0  0  0  0  0
    8.2345   -3.4736    0.0000 C   0  0  0  0  0  0  0  0  0  0  0  0
    7.8220   -4.1880    0.0000 C   0  0  0  0  0  0  0  0  0  0  0  0
    6.9970   -4.1880    0.0000 C   0  0  0  0  0  0  0  0  0  0  0  0
    6.4450   -4.8011    0.0000 C   0  0  0  0  0  0  0  0  0  0  0  0
    6.6165   -5.6081    0.0000 C   0  0  0  0  0  0  0  0  0  0  0  0
    7.4012   -5.8630    0.0000 C   0  0  0  0  0  0  0  0  0  0  0  0
    7.5727   -6.6700    0.0000 C   0  0  0  0  0  0  0  0  0  0  0  0
    8.3573   -6.9249    0.0000 C   0  0  0  0  0  0  0  0  0  0  0  0
    8.5288   -7.7319    0.0000 C   0  0  0  0  0  0  0  0  0  0  0  0
    7.9157   -8.2839    0.0000 C   0  0  0  0  0  0  0  0  0  0  0  0
    7.1311   -8.0290    0.0000 C   0  0  0  0  0  0  0  0  0  0  0  0
    6.9596   -7.2220    0.0000 C   0  0  0  0  0  0  0  0  0  0  0  0
  1  2  1  0  0  0  0
  2  3  1  0  0  0  0
  3  4  1  0  0  0  0
  4  5  1  0  0  0  0
  5  6  1  0  0  0  0
  6  7  1  0  0  0  0
  6  8  1  0  0  0  0
  8  9  1  0  0  0  0
  8 16  2  0  0  0  0
  9 10  1  0  0  0  0
 10 11  2  0  0  0  0
 10 15  1  0  0  0  0
 11 12  1  0  0  0  0
 12 13  2  0  0  0  0
 13 14  1  0  0  0  0
 14 15  2  0  0  0  0
 15 16  1  0  0  0  0
 16 17  1  0  0  0  0
 17 18  1  0  0  0  0
 18 19  1  0  0  0  0
 19 20  2  0  0  0  0
 19 24  1  0  0  0  0
 20 21  1  0  0  0  0
 21 22  2  0  0  0  0
 22 23  1  0  0  0  0
 23 24  2  0  0  0  0
M  END
$$$$

 OpenBabel12191814062D

 31 33  0  0  0  0  0  0  0  0999 V2000
    1.6207   -4.1855    0.0000 C   0  0  0  0  0  0  0  0  0  0  0  0
    2.3352   -4.5980    0.0000 C   0  0  0  0  0  0  0  0  0  0  0  0
    3.0497   -4.1855    0.0000 C   0  0  0  0  0  0  0  0  0  0  0  0
    3.7641   -4.5980    0.0000 N   0  0  0  0  0  0  0  0  0  0  0  0
    4.4786   -4.1855    0.0000 C   0  0  0  0  0  0  0  0  0  0  0  0
    5.1931   -4.5980    0.0000 C   0  0  3  0  0  0  0  0  0  0  0  0
    5.1931   -5.4230    0.0000 O   0  0  0  0  0  0  0  0  0  0  0  0
    5.9076   -4.1855    0.0000 C   0  0  0  0  0  0  0  0  0  0  0  0
    5.9076   -3.3605    0.0000 N   0  0  0  0  0  0  0  0  0  0  0  0
    5.2401   -2.8756    0.0000 C   0  0  0  0  0  0  0  0  0  0  0  0
    4.4555   -3.1305    0.0000 C   0  0  0  0  0  0  0  0  0  0  0  0
    5.4951   -2.0909    0.0000 C   0  0  0  0  0  0  0  0  0  0  0  0
    5.0101   -1.4235    0.0000 C   0  0  0  0  0  0  0  0  0  0  0  0
    4.1896   -1.5097    0.0000 O   0  0  0  0  0  0  0  0  0  0  0  0
    5.3457   -0.6698    0.0000 C   0  0  0  0  0  0  0  0  0  0  0  0
    6.1662   -0.5836    0.0000 C   0  0  0  0  0  0  0  0  0  0  0  0
    6.5017    0.1701    0.0000 C   0  0  0  0  0  0  0  0  0  0  0  0
    6.0168    0.8375    0.0000 C   0  0  0  0  0  0  0  0  0  0  0  0
    6.3524    1.5912    0.0000 C   0  0  0  0  0  0  0  0  0  0  0  0
    7.1728    1.6774    0.0000 C   0  0  0  0  0  0  0  0  0  0  0  0
    7.6578    1.0100    0.0000 C   0  0  0  0  0  0  0  0  0  0  0  0
    7.3222    0.2563    0.0000 C   0  0  0  0  0  0  0  0  0  0  0  0
    6.3201   -2.0909    0.0000 C   0  0  0  0  0  0  0  0  0  0  0  0
    6.8050   -1.4235    0.0000 O   0  0  0  0  0  0  0  0  0  0  0  0
    6.5750   -2.8756    0.0000 N   0  0  0  0  0  0  0  0  0  0  0  0
    7.3596   -3.1305    0.0000 C   0  0  0  0  0  0  0  0  0  0  0  0
    7.9727   -2.5785    0.0000 C   0  0  0  0  0  0  0  0  0  0  0  0
    8.7573   -2.8334    0.0000 C   0  0  0  0  0  0  0  0  0  0  0  0
    8.9289   -3.6404    0.0000 C   0  0  0  0  0  0  0  0  0  0  0  0
    8.3158   -4.1924    0.0000 C   0  0  0  0  0  0  0  0  0  0  0  0
    7.5311   -3.9375    0.0000 C   0  0  0  0  0  0  0  0  0  0  0  0
  1  2  1  0  0  0  0
  2  3  1  0  0  0  0
  3  4  1  0  0  0  0
  4  5  1  0  0  0  0
  5  6  1  0  0  0  0
  6  7  1  0  0  0  0
  6  8  1  0  0  0  0
  8  9  1  0  0  0  0
  9 10  1  0  0  0  0
  9 25  1  0  0  0  0
 10 11  1  0  0  0  0
 10 12  2  0  0  0  0
 12 13  1  0  0  0  0
 12 23  1  0  0  0  0
 13 14  2  0  0  0  0
 13 15  1  0  0  0  0
 15 16  1  0  0  0  0
 16 17  1  0  0  0  0
 17 18  2  0  0  0  0
 17 22  1  0  0  0  0
 18 19  1  0  0  0  0
 19 20  2  0  0  0  0
 20 21  1  0  0  0  0
 21 22  2  0  0  0  0
 23 24  2  0  0  0  0
 23 25  1  0  0  0  0
 25 26  1  0  0  0  0
 26 27  2  0  0  0  0
 26 31  1  0  0  0  0
 27 28  1  0  0  0  0
 28 29  2  0  0  0  0
 29 30  1  0  0  0  0
 30 31  2  0  0  0  0
M  END
$$$$

 OpenBabel12191814062D

 26 27  0  0  0  0  0  0  0  0999 V2000
    0.7145   -6.1875    0.0000 C   0  0  0  0  0  0  0  0  0  0  0  0
    1.4289   -6.6000    0.0000 C   0  0  0  0  0  0  0  0  0  0  0  0
    2.1434   -6.1875    0.0000 C   0  0  0  0  0  0  0  0  0  0  0  0
    2.8579   -6.6000    0.0000 N   0  0  0  0  0  0  0  0  0  0  0  0
    3.5724   -6.1875    0.0000 C   0  0  0  0  0  0  0  0  0  0  0  0
    4.2868   -6.6000    0.0000 C   0  0  3  0  0  0  0  0  0  0  0  0
    4.2868   -7.4250    0.0000 O   0  0  0  0  0  0  0  0  0  0  0  0
    5.0013   -6.1875    0.0000 C   0  0  0  0  0  0  0  0  0  0  0  0
    5.7158   -6.6000    0.0000 O   0  0  0  0  0  0  0  0  0  0  0  0
    6.4302   -6.1875    0.0000 C   0  0  0  0  0  0  0  0  0  0  0  0
    6.4302   -5.3625    0.0000 C   0  0  0  0  0  0  0  0  0  0  0  0
    7.1447   -4.9500    0.0000 C   0  0  0  0  0  0  0  0  0  0  0  0
    7.8592   -5.3625    0.0000 C   0  0  0  0  0  0  0  0  0  0  0  0
    8.5737   -4.9500    0.0000 O   0  0  0  0  0  0  0  0  0  0  0  0
    7.8592   -6.1875    0.0000 C   0  0  0  0  0  0  0  0  0  0  0  0
    7.1447   -6.6000    0.0000 C   0  0  0  0  0  0  0  0  0  0  0  0
    7.1447   -7.4250    0.0000 C   0  0  0  0  0  0  0  0  0  0  0  0
    7.8592   -7.8375    0.0000 O   0  0  0  0  0  0  0  0  0  0  0  0
    6.4302   -7.8375    0.0000 C   0  0  0  0  0  0  0  0  0  0  0  0
    6.4302   -8.6625    0.0000 C   0  0  0  0  0  0  0  0  0  0  0  0
    7.1447   -9.0750    0.0000 C   0  0  0  0  0  0  0  0  0  0  0  0
    7.8592   -8.6625    0.0000 C   0  0  0  0  0  0  0  0  0  0  0  0
    8.5737   -9.0750    0.0000 C   0  0  0  0  0  0  0  0  0  0  0  0
    8.5737   -9.9000    0.0000 C   0  0  0  0  0  0  0  0  0  0  0  0
    7.8592  -10.3125    0.0000 C   0  0  0  0  0  0  0  0  0  0  0  0
    7.1447   -9.9000    0.0000 C   0  0  0  0  0  0  0  0  0  0  0  0
  1  2  1  0  0  0  0
  2  3  1  0  0  0  0
  3  4  1  0  0  0  0
  4  5  1  0  0  0  0
  5  6  1  0  0  0  0
  6  7  1  0  0  0  0
  6  8  1  0  0  0  0
  8  9  1  0  0  0  0
  9 10  1  0  0  0  0
 10 11  2  0  0  0  0
 10 16  1  0  0  0  0
 11 12  1  0  0  0  0
 12 13  2  0  0  0  0
 13 14  1  0  0  0  0
 13 15  1  0  0  0  0
 15 16  2  0  0  0  0
 16 17  1  0  0  0  0
 17 18  2  0  0  0  0
 17 19  1  0  0  0  0
 19 20  1  0  0  0  0
 20 21  1  0  0  0  0
 21 22  2  0  0  0  0
 21 26  1  0  0  0  0
 22 23  1  0  0  0  0
 23 24  2  0  0  0  0
 24 25  1  0  0  0  0
 25 26  2  0  0  0  0
M  END
$$$$

 OpenBabel12191814062D

 33 35  0  0  0  0  0  0  0  0999 V2000
    5.0013   -4.5375    0.0000 C   0  0  0  0  0  0  0  0  0  0  0  0
    5.7158   -4.1250    0.0000 C   0  0  0  0  0  0  0  0  0  0  0  0
    6.4302   -4.5375    0.0000 C   0  0  0  0  0  0  0  0  0  0  0  0
    7.1447   -4.1250    0.0000 N   0  0  0  0  0  0  0  0  0  0  0  0
    7.8592   -4.5375    0.0000 C   0  0  0  0  0  0  0  0  0  0  0  0
    8.5737   -4.1250    0.0000 C   0  0  3  0  0  0  0  0  0  0  0  0
    8.5737   -3.3000    0.0000 O   0  0  0  0  0  0  0  0  0  0  0  0
    9.2881   -4.5375    0.0000 C   0  0  0  0  0  0  0  0  0  0  0  0
   10.0026   -4.1250    0.0000 O   0  0  0  0  0  0  0  0  0  0  0  0
   10.7171   -4.5375    0.0000 C   0  0  0  0  0  0  0  0  0  0  0  0
   11.4315   -4.1250    0.0000 C   0  0  0  0  0  0  0  0  0  0  0  0
   12.1460   -4.5375    0.0000 C   0  0  0  0  0  0  0  0  0  0  0  0
   12.1460   -5.3625    0.0000 C   0  0  0  0  0  0  0  0  0  0  0  0
   12.8605   -5.7750    0.0000 O   0  0  0  0  0  0  0  0  0  0  0  0
   13.5749   -5.3625    0.0000 C   0  0  0  0  0  0  0  0  0  0  0  0
   14.2894   -5.7750    0.0000 C   0  0  0  0  0  0  0  0  0  0  0  0
   15.0039   -5.3625    0.0000 C   0  0  0  0  0  0  0  0  0  0  0  0
   15.7184   -5.7750    0.0000 C   0  0  0  0  0  0  0  0  0  0  0  0
   15.7184   -6.6000    0.0000 C   0  0  0  0  0  0  0  0  0  0  0  0
   15.0039   -7.0125    0.0000 C   0  0  0  0  0  0  0  0  0  0  0  0
   14.2894   -6.6000    0.0000 C   0  0  0  0  0  0  0  0  0  0  0  0
   11.4315   -5.7750    0.0000 C   0  0  0  0  0  0  0  0  0  0  0  0
   10.7171   -5.3625    0.0000 C   0  0  0  0  0  0  0  0  0  0  0  0
   10.0026   -5.7750    0.0000 C   0  0  0  0  0  0  0  0  0  0  0  0
    9.2881   -5.3625    0.0000 O   0  0  0  0  0  0  0  0  0  0  0  0
   10.0026   -6.6000    0.0000 C   0  0  0  0  0  0  0  0  0  0  0  0
   10.7171   -7.0125    0.0000 C   0  0  0  0  0  0  0  0  0  0  0  0
   10.7171   -7.8375    0.0000 C   0  0  0  0  0  0  0  0  0  0  0  0
   11.4315   -8.2500    0.0000 C   0  0  0  0  0  0  0  0  0  0  0  0
   11.4315   -9.0750    0.0000 C   0  0  0  0  0  0  0  0  0  0  0  0
   10.7171   -9.4875    0.0000 C   0  0  0  0  0  0  0  0  0  0  0  0
   10.0026   -9.0750    0.0000 C   0  0  0  0  0  0  0  0  0  0  0  0
   10.0026   -8.2500    0.0000 C   0  0  0  0  0  0  0  0  0  0  0  0
  1  2  1  0  0  0  0
  2  3  1  0  0  0  0
  3  4  1  0  0  0  0
  4  5  1  0  0  0  0
  5  6  1  0  0  0  0
  6  7  1  0  0  0  0
  6  8  1  0  0  0  0
  8  9  1  0  0  0  0
  9 10  1  0  0  0  0
 10 11  2  0  0  0  0
 10 23  1  0  0  0  0
 11 12  1  0  0  0  0
 12 13  2  0  0  0  0
 13 14  1  0  0  0  0
 13 22  1  0  0  0  0
 14 15  1  0  0  0  0
 15 16  1  0  0  0  0
 16 17  2  0  0  0  0
 16 21  1  0  0  0  0
 17 18  1  0  0  0  0
 18 19  2  0  0  0  0
 19 20  1  0  0  0  0
 20 21  2  0  0  0  0
 22 23  2  0  0  0  0
 23 24  1  0  0  0  0
 24 25  2  0  0  0  0
 24 26  1  0  0  0  0
 26 27  1  0  0  0  0
 27 28  1  0  0  0  0
 28 29  2  0  0  0  0
 28 33  1  0  0  0  0
 29 30  1  0  0  0  0
 30 31  2  0  0  0  0
 31 32  1  0  0  0  0
 32 33  2  0  0  0  0
M  END
$$$$

 OpenBabel12191814062D

 25 26  0  0  0  0  0  0  0  0999 V2000
    0.7145   -6.1875    0.0000 C   0  0  0  0  0  0  0  0  0  0  0  0
    1.4289   -6.6000    0.0000 C   0  0  0  0  0  0  0  0  0  0  0  0
    2.1434   -6.1875    0.0000 C   0  0  0  0  0  0  0  0  0  0  0  0
    2.8579   -6.6000    0.0000 N   0  0  0  0  0  0  0  0  0  0  0  0
    3.5724   -6.1875    0.0000 C   0  0  0  0  0  0  0  0  0  0  0  0
    4.2868   -6.6000    0.0000 C   0  0  3  0  0  0  0  0  0  0  0  0
    4.2868   -7.4250    0.0000 O   0  0  0  0  0  0  0  0  0  0  0  0
    5.0013   -6.1875    0.0000 C   0  0  0  0  0  0  0  0  0  0  0  0
    5.7158   -6.6000    0.0000 O   0  0  0  0  0  0  0  0  0  0  0  0
    6.4302   -6.1875    0.0000 C   0  0  0  0  0  0  0  0  0  0  0  0
    6.4302   -5.3625    0.0000 C   0  0  0  0  0  0  0  0  0  0  0  0
    7.1447   -4.9500    0.0000 C   0  0  0  0  0  0  0  0  0  0  0  0
    7.8592   -5.3625    0.0000 C   0  0  0  0  0  0  0  0  0  0  0  0
    7.8592   -6.1875    0.0000 C   0  0  0  0  0  0  0  0  0  0  0  0
    7.1447   -6.6000    0.0000 C   0  0  0  0  0  0  0  0  0  0  0  0
    7.1447   -7.4250    0.0000 C   0  0  0  0  0  0  0  0  0  0  0  0
    7.8592   -7.8375    0.0000 O   0  0  0  0  0  0  0  0  0  0  0  0
    6.4302   -7.8375    0.0000 C   0  0  0  0  0  0  0  0  0  0  0  0
    6.4302   -8.6625    0.0000 C   0  0  0  0  0  0  0  0  0  0  0  0
    7.1447   -9.0750    0.0000 C   0  0  0  0  0  0  0  0  0  0  0  0
    7.8592   -8.6625    0.0000 C   0  0  0  0  0  0  0  0  0  0  0  0
    8.5737   -9.0750    0.0000 C   0  0  0  0  0  0  0  0  0  0  0  0
    8.5737   -9.9000    0.0000 C   0  0  0  0  0  0  0  0  0  0  0  0
    7.8592  -10.3125    0.0000 C   0  0  0  0  0  0  0  0  0  0  0  0
    7.1447   -9.9000    0.0000 C   0  0  0  0  0  0  0  0  0  0  0  0
  1  2  1  0  0  0  0
  2  3  1  0  0  0  0
  3  4  1  0  0  0  0
  4  5  1  0  0  0  0
  5  6  1  0  0  0  0
  6  7  1  0  0  0  0
  6  8  1  0  0  0  0
  8  9  1  0  0  0  0
  9 10  1  0  0  0  0
 10 11  2  0  0  0  0
 10 15  1  0  0  0  0
 11 12  1  0  0  0  0
 12 13  2  0  0  0  0
 13 14  1  0  0  0  0
 14 15  2  0  0  0  0
 15 16  1  0  0  0  0
 16 17  2  0  0  0  0
 16 18  1  0  0  0  0
 18 19  1  0  0  0  0
 19 20  1  0  0  0  0
 20 21  2  0  0  0  0
 20 25  1  0  0  0  0
 21 22  1  0  0  0  0
 22 23  2  0  0  0  0
 23 24  1  0  0  0  0
 24 25  2  0  0  0  0
M  END
$$$$

 OpenBabel12191814062D

 23 25  0  0  0  0  0  0  0  0999 V2000
    1.4045   -4.4656    0.0000 C   0  0  0  0  0  0  0  0  0  0  0  0
    2.1190   -4.8781    0.0000 C   0  0  0  0  0  0  0  0  0  0  0  0
    2.8334   -4.4656    0.0000 C   0  0  0  0  0  0  0  0  0  0  0  0
    3.5479   -4.8781    0.0000 N   0  0  0  0  0  0  0  0  0  0  0  0
    4.2624   -4.4656    0.0000 C   0  0  0  0  0  0  0  0  0  0  0  0
    4.9769   -4.8781    0.0000 C   0  0  0  0  0  0  0  0  0  0  0  0
    5.6913   -4.4656    0.0000 C   0  0  0  0  0  0  0  0  0  0  0  0
    5.7776   -3.6451    0.0000 O   0  0  0  0  0  0  0  0  0  0  0  0
    6.5845   -3.4736    0.0000 C   0  0  0  0  0  0  0  0  0  0  0  0
    6.9970   -2.7591    0.0000 C   0  0  0  0  0  0  0  0  0  0  0  0
    7.8220   -2.7591    0.0000 C   0  0  0  0  0  0  0  0  0  0  0  0
    8.2345   -3.4736    0.0000 C   0  0  0  0  0  0  0  0  0  0  0  0
    7.8220   -4.1880    0.0000 C   0  0  0  0  0  0  0  0  0  0  0  0
    6.9970   -4.1880    0.0000 C   0  0  0  0  0  0  0  0  0  0  0  0
    6.4450   -4.8011    0.0000 C   0  0  0  0  0  0  0  0  0  0  0  0
    6.6165   -5.6081    0.0000 C   0  0  0  0  0  0  0  0  0  0  0  0
    7.4012   -5.8630    0.0000 C   0  0  0  0  0  0  0  0  0  0  0  0
    7.5727   -6.6700    0.0000 C   0  0  0  0  0  0  0  0  0  0  0  0
    8.3573   -6.9249    0.0000 C   0  0  0  0  0  0  0  0  0  0  0  0
    8.5288   -7.7319    0.0000 C   0  0  0  0  0  0  0  0  0  0  0  0
    7.9157   -8.2839    0.0000 C   0  0  0  0  0  0  0  0  0  0  0  0
    7.1311   -8.0290    0.0000 C   0  0  0  0  0  0  0  0  0  0  0  0
    6.9596   -7.2220    0.0000 C   0  0  0  0  0  0  0  0  0  0  0  0
  1  2  1  0  0  0  0
  2  3  1  0  0  0  0
  3  4  1  0  0  0  0
  4  5  1  0  0  0  0
  5  6  1  0  0  0  0
  6  7  1  0  0  0  0
  7  8  1  0  0  0  0
  7 15  2  0  0  0  0
  8  9  1  0  0  0  0
  9 10  2  0  0  0  0
  9 14  1  0  0  0  0
 10 11  1  0  0  0  0
 11 12  2  0  0  0  0
 12 13  1  0  0  0  0
 13 14  2  0  0  0  0
 14 15  1  0  0  0  0
 15 16  1  0  0  0  0
 16 17  1  0  0  0  0
 17 18  1  0  0  0  0
 18 19  2  0  0  0  0
 18 23  1  0  0  0  0
 19 20  1  0  0  0  0
 20 21  2  0  0  0  0
 21 22  1  0  0  0  0
 22 23  2  0  0  0  0
M  END
$$$$

 OpenBabel12191814062D

 23 25  0  0  0  0  0  0  0  0999 V2000
   -0.7145   -3.7125    0.0000 C   0  0  0  0  0  0  0  0  0  0  0  0
   -0.7145   -2.8875    0.0000 C   0  0  0  0  0  0  0  0  0  0  0  0
    0.0000   -2.4750    0.0000 C   0  0  0  0  0  0  0  0  0  0  0  0
    0.0000   -1.6500    0.0000 O   0  0  0  0  0  0  0  0  0  0  0  0
    0.7145   -1.2375    0.0000 C   0  0  0  0  0  0  0  0  0  0  0  0
    0.7145   -0.4125    0.0000 C   0  0  0  0  0  0  0  0  0  0  0  0
    0.0000    0.0000    0.0000 O   0  0  0  0  0  0  0  0  0  0  0  0
    1.4289    0.0000    0.0000 C   0  0  0  0  0  0  0  0  0  0  0  0
    2.1434   -0.4125    0.0000 C   0  0  0  0  0  0  0  0  0  0  0  0
    2.8579    0.0000    0.0000 O   0  0  0  0  0  0  0  0  0  0  0  0
    3.5724   -0.4125    0.0000 C   0  0  0  0  0  0  0  0  0  0  0  0
    3.5724   -1.2375    0.0000 C   0  0  0  0  0  0  0  0  0  0  0  0
    2.8579   -1.6500    0.0000 C   0  0  0  0  0  0  0  0  0  0  0  0
    2.8579   -2.4750    0.0000 O   0  0  0  0  0  0  0  0  0  0  0  0
    2.1434   -1.2375    0.0000 C   0  0  0  0  0  0  0  0  0  0  0  0
    1.4289   -1.6500    0.0000 C   0  0  0  0  0  0  0  0  0  0  0  0
    1.4289   -2.4750    0.0000 O   0  0  0  0  0  0  0  0  0  0  0  0
    4.2868   -0.0000    0.0000 C   0  0  0  0  0  0  0  0  0  0  0  0
    4.2868    0.8250    0.0000 C   0  0  0  0  0  0  0  0  0  0  0  0
    5.0013    1.2375    0.0000 C   0  0  0  0  0  0  0  0  0  0  0  0
    5.7158    0.8250    0.0000 C   0  0  0  0  0  0  0  0  0  0  0  0
    5.7158   -0.0000    0.0000 C   0  0  0  0  0  0  0  0  0  0  0  0
    5.0013   -0.4125    0.0000 C   0  0  0  0  0  0  0  0  0  0  0  0
  1  2  1  0  0  0  0
  2  3  1  0  0  0  0
  3  4  1  0  0  0  0
  4  5  1  0  0  0  0
  5  6  2  0  0  0  0
  5 16  1  0  0  0  0
  6  7  1  0  0  0  0
  6  8  1  0  0  0  0
  8  9  2  0  0  0  0
  9 10  1  0  0  0  0
  9 15  1  0  0  0  0
 10 11  1  0  0  0  0
 11 12  2  0  0  0  0
 11 18  1  0  0  0  0
 12 13  1  0  0  0  0
 13 14  2  0  0  0  0
 13 15  1  0  0  0  0
 15 16  2  0  0  0  0
 16 17  1  0  0  0  0
 18 19  2  0  0  0  0
 18 23  1  0  0  0  0
 19 20  1  0  0  0  0
 20 21  2  0  0  0  0
 21 22  1  0  0  0  0
 22 23  2  0  0  0  0
M  END
$$$$

 OpenBabel12191814062D

 24 26  0  0  0  0  0  0  0  0999 V2000
   -0.7145   -3.7125    0.0000 C   0  0  0  0  0  0  0  0  0  0  0  0
   -0.7145   -2.8875    0.0000 C   0  0  0  0  0  0  0  0  0  0  0  0
    0.0000   -2.4750    0.0000 C   0  0  0  0  0  0  0  0  0  0  0  0
    0.0000   -1.6500    0.0000 O   0  0  0  0  0  0  0  0  0  0  0  0
    0.7145   -1.2375    0.0000 C   0  0  0  0  0  0  0  0  0  0  0  0
    0.7145   -0.4125    0.0000 C   0  0  0  0  0  0  0  0  0  0  0  0
    0.0000    0.0000    0.0000 O   0  0  0  0  0  0  0  0  0  0  0  0
    0.0000    0.8250    0.0000 C   0  0  0  0  0  0  0  0  0  0  0  0
    1.4289    0.0000    0.0000 C   0  0  0  0  0  0  0  0  0  0  0  0
    2.1434   -0.4125    0.0000 C   0  0  0  0  0  0  0  0  0  0  0  0
    2.8579    0.0000    0.0000 O   0  0  0  0  0  0  0  0  0  0  0  0
    3.5724   -0.4125    0.0000 C   0  0  0  0  0  0  0  0  0  0  0  0
    3.5724   -1.2375    0.0000 C   0  0  0  0  0  0  0  0  0  0  0  0
    2.8579   -1.6500    0.0000 C   0  0  0  0  0  0  0  0  0  0  0  0
    2.8579   -2.4750    0.0000 O   0  0  0  0  0  0  0  0  0  0  0  0
    2.1434   -1.2375    0.0000 C   0  0  0  0  0  0  0  0  0  0  0  0
    1.4289   -1.6500    0.0000 C   0  0  0  0  0  0  0  0  0  0  0  0
    1.4289   -2.4750    0.0000 O   0  0  0  0  0  0  0  0  0  0  0  0
    4.2868   -0.0000    0.0000 C   0  0  0  0  0  0  0  0  0  0  0  0
    4.2868    0.8250    0.0000 C   0  0  0  0  0  0  0  0  0  0  0  0
    5.0013    1.2375    0.0000 C   0  0  0  0  0  0  0  0  0  0  0  0
    5.7158    0.8250    0.0000 C   0  0  0  0  0  0  0  0  0  0  0  0
    5.7158   -0.0000    0.0000 C   0  0  0  0  0  0  0  0  0  0  0  0
    5.0013   -0.4125    0.0000 C   0  0  0  0  0  0  0  0  0  0  0  0
  1  2  1  0  0  0  0
  2  3  1  0  0  0  0
  3  4  1  0  0  0  0
  4  5  1  0  0  0  0
  5  6  2  0  0  0  0
  5 17  1  0  0  0  0
  6  7  1  0  0  0  0
  6  9  1  0  0  0  0
  7  8  1  0  0  0  0
  9 10  2  0  0  0  0
 10 11  1  0  0  0  0
 10 16  1  0  0  0  0
 11 12  1  0  0  0  0
 12 13  2  0  0  0  0
 12 19  1  0  0  0  0
 13 14  1  0  0  0  0
 14 15  2  0  0  0  0
 14 16  1  0  0  0  0
 16 17  2  0  0  0  0
 17 18  1  0  0  0  0
 19 20  2  0  0  0  0
 19 24  1  0  0  0  0
 20 21  1  0  0  0  0
 21 22  2  0  0  0  0
 22 23  1  0  0  0  0
 23 24  2  0  0  0  0
M  END
$$$$

 OpenBabel12191814062D

 25 27  0  0  0  0  0  0  0  0999 V2000
   -0.7145   -3.7125    0.0000 C   0  0  0  0  0  0  0  0  0  0  0  0
   -0.7145   -2.8875    0.0000 C   0  0  0  0  0  0  0  0  0  0  0  0
    0.0000   -2.4750    0.0000 C   0  0  0  0  0  0  0  0  0  0  0  0
    0.0000   -1.6500    0.0000 O   0  0  0  0  0  0  0  0  0  0  0  0
    0.7145   -1.2375    0.0000 C   0  0  0  0  0  0  0  0  0  0  0  0
    0.7145   -0.4125    0.0000 C   0  0  0  0  0  0  0  0  0  0  0  0
    0.0000    0.0000    0.0000 O   0  0  0  0  0  0  0  0  0  0  0  0
    0.0000    0.8250    0.0000 C   0  0  0  0  0  0  0  0  0  0  0  0
    1.4289    0.0000    0.0000 C   0  0  0  0  0  0  0  0  0  0  0  0
    2.1434   -0.4125    0.0000 C   0  0  0  0  0  0  0  0  0  0  0  0
    2.8579    0.0000    0.0000 O   0  0  0  0  0  0  0  0  0  0  0  0
    3.5724   -0.4125    0.0000 C   0  0  0  0  0  0  0  0  0  0  0  0
    3.5724   -1.2375    0.0000 C   0  0  0  0  0  0  0  0  0  0  0  0
    2.8579   -1.6500    0.0000 C   0  0  0  0  0  0  0  0  0  0  0  0
    2.8579   -2.4750    0.0000 O   0  0  0  0  0  0  0  0  0  0  0  0
    2.1434   -1.2375    0.0000 C   0  0  0  0  0  0  0  0  0  0  0  0
    1.4289   -1.6500    0.0000 C   0  0  0  0  0  0  0  0  0  0  0  0
    1.4289   -2.4750    0.0000 O   0  0  0  0  0  0  0  0  0  0  0  0
    0.7145   -2.8875    0.0000 C   0  0  0  0  0  0  0  0  0  0  0  0
    4.2868   -0.0000    0.0000 C   0  0  0  0  0  0  0  0  0  0  0  0
    4.2868    0.8250    0.0000 C   0  0  0  0  0  0  0  0  0  0  0  0
    5.0013    1.2375    0.0000 C   0  0  0  0  0  0  0  0  0  0  0  0
    5.7158    0.8250    0.0000 C   0  0  0  0  0  0  0  0  0  0  0  0
    5.7158   -0.0000    0.0000 C   0  0  0  0  0  0  0  0  0  0  0  0
    5.0013   -0.4125    0.0000 C   0  0  0  0  0  0  0  0  0  0  0  0
  1  2  1  0  0  0  0
  2  3  1  0  0  0  0
  3  4  1  0  0  0  0
  4  5  1  0  0  0  0
  5  6  2  0  0  0  0
  5 17  1  0  0  0  0
  6  7  1  0  0  0  0
  6  9  1  0  0  0  0
  7  8  1  0  0  0  0
  9 10  2  0  0  0  0
 10 11  1  0  0  0  0
 10 16  1  0  0  0  0
 11 12  1  0  0  0  0
 12 13  2  0  0  0  0
 12 20  1  0  0  0  0
 13 14  1  0  0  0  0
 14 15  2  0  0  0  0
 14 16  1  0  0  0  0
 16 17  2  0  0  0  0
 17 18  1  0  0  0  0
 18 19  1  0  0  0  0
 20 21  2  0  0  0  0
 20 25  1  0  0  0  0
 21 22  1  0  0  0  0
 22 23  2  0  0  0  0
 23 24  1  0  0  0  0
 24 25  2  0  0  0  0
M  END
$$$$

 OpenBabel12191814062D

 26 28  0  0  0  0  0  0  0  0999 V2000
   -2.1434   -0.4125    0.0000 C   0  0  0  0  0  0  0  0  0  0  0  0
   -1.4289    0.0000    0.0000 C   0  0  0  0  0  0  0  0  0  0  0  0
   -0.7145   -0.4125    0.0000 C   0  0  0  0  0  0  0  0  0  0  0  0
    0.0000    0.0000    0.0000 O   0  0  0  0  0  0  0  0  0  0  0  0
    0.7145   -0.4125    0.0000 C   0  0  0  0  0  0  0  0  0  0  0  0
    1.4289    0.0000    0.0000 C   0  0  0  0  0  0  0  0  0  0  0  0
    2.1434   -0.4125    0.0000 C   0  0  0  0  0  0  0  0  0  0  0  0
    2.8579    0.0000    0.0000 O   0  0  0  0  0  0  0  0  0  0  0  0
    3.5724   -0.4125    0.0000 C   0  0  0  0  0  0  0  0  0  0  0  0
    3.5724   -1.2375    0.0000 C   0  0  0  0  0  0  0  0  0  0  0  0
    2.8579   -1.6500    0.0000 C   0  0  0  0  0  0  0  0  0  0  0  0
    2.8579   -2.4750    0.0000 O   0  0  0  0  0  0  0  0  0  0  0  0
    2.1434   -1.2375    0.0000 C   0  0  0  0  0  0  0  0  0  0  0  0
    1.4289   -1.6500    0.0000 C   0  0  0  0  0  0  0  0  0  0  0  0
    1.4289   -2.4750    0.0000 O   0  0  0  0  0  0  0  0  0  0  0  0
    0.7145   -1.2375    0.0000 C   0  0  0  0  0  0  0  0  0  0  0  0
    0.0000   -1.6500    0.0000 O   0  0  0  0  0  0  0  0  0  0  0  0
   -0.7145   -1.2375    0.0000 C   0  0  0  0  0  0  0  0  0  0  0  0
   -1.4289   -1.6500    0.0000 C   0  0  0  0  0  0  0  0  0  0  0  0
   -2.1434   -1.2375    0.0000 C   0  0  0  0  0  0  0  0  0  0  0  0
    4.2868   -0.0000    0.0000 C   0  0  0  0  0  0  0  0  0  0  0  0
    4.2868    0.8250    0.0000 C   0  0  0  0  0  0  0  0  0  0  0  0
    5.0013    1.2375    0.0000 C   0  0  0  0  0  0  0  0  0  0  0  0
    5.7158    0.8250    0.0000 C   0  0  0  0  0  0  0  0  0  0  0  0
    5.7158   -0.0000    0.0000 C   0  0  0  0  0  0  0  0  0  0  0  0
    5.0013   -0.4125    0.0000 C   0  0  0  0  0  0  0  0  0  0  0  0
  1  2  1  0  0  0  0
  2  3  1  0  0  0  0
  3  4  1  0  0  0  0
  4  5  1  0  0  0  0
  5  6  2  0  0  0  0
  5 16  1  0  0  0  0
  6  7  1  0  0  0  0
  7  8  1  0  0  0  0
  7 13  2  0  0  0  0
  8  9  1  0  0  0  0
  9 10  2  0  0  0  0
  9 21  1  0  0  0  0
 10 11  1  0  0  0  0
 11 12  2  0  0  0  0
 11 13  1  0  0  0  0
 13 14  1  0  0  0  0
 14 15  1  0  0  0  0
 14 16  2  0  0  0  0
 16 17  1  0  0  0  0
 17 18  1  0  0  0  0
 18 19  1  0  0  0  0
 19 20  1  0  0  0  0
 21 22  2  0  0  0  0
 21 26  1  0  0  0  0
 22 23  1  0  0  0  0
 23 24  2  0  0  0  0
 24 25  1  0  0  0  0
 25 26  2  0  0  0  0
M  END
$$$$

 OpenBabel12191814062D

 32 35  0  0  0  0  0  0  0  0999 V2000
   -2.1434   -8.6625    0.0000 C   0  0  0  0  0  0  0  0  0  0  0  0
   -2.1434   -7.8375    0.0000 C   0  0  0  0  0  0  0  0  0  0  0  0
   -2.8579   -7.4250    0.0000 C   0  0  0  0  0  0  0  0  0  0  0  0
   -2.8579   -6.6000    0.0000 S   0  0  0  0  0  0  0  0  0  0  0  0
   -3.5724   -6.1875    0.0000 C   0  0  0  0  0  0  0  0  0  0  0  0
   -4.2868   -6.6000    0.0000 C   0  0  0  0  0  0  0  0  0  0  0  0
   -5.0013   -6.1875    0.0000 C   0  0  0  0  0  0  0  0  0  0  0  0
   -5.0013   -5.3625    0.0000 C   0  0  0  0  0  0  0  0  0  0  0  0
   -4.2868   -4.9500    0.0000 C   0  0  0  0  0  0  0  0  0  0  0  0
   -3.5724   -5.3625    0.0000 C   0  0  0  0  0  0  0  0  0  0  0  0
   -2.8579   -4.9500    0.0000 N   0  0  0  0  0  0  0  0  0  0  0  0
   -2.8579   -4.1250    0.0000 C   0  0  0  0  0  0  0  0  0  0  0  0
   -2.1434   -3.7125    0.0000 C   0  0  0  0  0  0  0  0  0  0  0  0
   -1.4289   -4.1250    0.0000 N   0  0  0  0  0  0  0  0  0  0  0  0
   -0.7145   -3.7125    0.0000 C   0  0  0  0  0  0  0  0  0  0  0  0
   -0.7145   -2.8875    0.0000 C   0  0  0  0  0  0  0  0  0  0  0  0
    0.0000   -2.4750    0.0000 C   0  0  0  0  0  0  0  0  0  0  0  0
    0.0000   -1.6500    0.0000 C   0  0  0  0  0  0  0  0  0  0  0  0
    0.7145   -1.2375    0.0000 N   0  0  0  0  0  0  0  0  0  0  0  0
    0.7145   -0.4125    0.0000 C   0  0  0  0  0  0  0  0  0  0  0  0
    0.0000    0.0000    0.0000 O   0  0  0  0  0  0  0  0  0  0  0  0
    1.4289    0.0000    0.0000 N   0  0  0  0  0  0  0  0  0  0  0  0
    2.1434   -0.4125    0.0000 C   0  0  0  0  0  0  0  0  0  0  0  0
    2.8579    0.0000    0.0000 C   0  0  0  0  0  0  0  0  0  0  0  0
    3.5724   -0.4125    0.0000 C   0  0  0  0  0  0  0  0  0  0  0  0
    3.5724   -1.2375    0.0000 C   0  0  0  0  0  0  0  0  0  0  0  0
    2.8579   -1.6500    0.0000 C   0  0  0  0  0  0  0  0  0  0  0  0
    2.1434   -1.2375    0.0000 C   0  0  0  0  0  0  0  0  0  0  0  0
    1.4289   -1.6500    0.0000 C   0  0  0  0  0  0  0  0  0  0  0  0
    1.4289   -2.4750    0.0000 O   0  0  0  0  0  0  0  0  0  0  0  0
   -1.4289   -4.9500    0.0000 C   0  0  0  0  0  0  0  0  0  0  0  0
   -2.1434   -5.3625    0.0000 C   0  0  0  0  0  0  0  0  0  0  0  0
  1  2  1  0  0  0  0
  2  3  1  0  0  0  0
  3  4  1  0  0  0  0
  4  5  1  0  0  0  0
  5  6  2  0  0  0  0
  5 10  1  0  0  0  0
  6  7  1  0  0  0  0
  7  8  2  0  0  0  0
  8  9  1  0  0  0  0
  9 10  2  0  0  0  0
 10 11  1  0  0  0  0
 11 12  1  0  0  0  0
 11 32  1  0  0  0  0
 12 13  1  0  0  0  0
 13 14  1  0  0  0  0
 14 15  1  0  0  0  0
 14 31  1  0  0  0  0
 15 16  1  0  0  0  0
 16 17  1  0  0  0  0
 17 18  1  0  0  0  0
 18 19  1  0  0  0  0
 19 20  1  0  0  0  0
 19 29  1  0  0  0  0
 20 21  2  0  0  0  0
 20 22  1  0  0  0  0
 22 23  1  0  0  0  0
 23 24  2  0  0  0  0
 23 28  1  0  0  0  0
 24 25  1  0  0  0  0
 25 26  2  0  0  0  0
 26 27  1  0  0  0  0
 27 28  2  0  0  0  0
 28 29  1  0  0  0  0
 29 30  2  0  0  0  0
 31 32  1  0  0  0  0
M  END
$$$$

 OpenBabel12191814062D

 38 41  0  0  0  0  0  0  0  0999 V2000
   -0.7145   -3.7125    0.0000 C   0  0  0  0  0  0  0  0  0  0  0  0
    0.0000   -4.1250    0.0000 C   0  0  0  0  0  0  0  0  0  0  0  0
    0.7145   -3.7125    0.0000 N   0  0  0  0  0  0  0  0  0  0  0  0
    1.4289   -4.1250    0.0000 C   0  0  0  0  0  0  0  0  0  0  0  0
    1.4289   -4.9500    0.0000 C   0  0  0  0  0  0  0  0  0  0  0  0
    2.1434   -5.3625    0.0000 C   0  0  0  0  0  0  0  0  0  0  0  0
    2.1434   -6.1875    0.0000 C   0  0  0  0  0  0  0  0  0  0  0  0
    1.4289   -6.6000    0.0000 C   0  0  0  0  0  0  0  0  0  0  0  0
    1.4289   -7.4250    0.0000 F   0  0  0  0  0  0  0  0  0  0  0  0
    0.7145   -6.1875    0.0000 C   0  0  0  0  0  0  0  0  0  0  0  0
    0.7145   -5.3625    0.0000 C   0  0  0  0  0  0  0  0  0  0  0  0
    2.1434   -3.7125    0.0000 C   0  0  0  0  0  0  0  0  0  0  0  0
    2.1434   -2.8875    0.0000 C   0  0  0  0  0  0  0  0  0  0  0  0
    2.8579   -2.4750    0.0000 C   0  0  0  0  0  0  0  0  0  0  0  0
    3.5724   -2.8875    0.0000 C   0  0  0  0  0  0  0  0  0  0  0  0
    4.2868   -2.4750    0.0000 F   0  0  0  0  0  0  0  0  0  0  0  0
    3.5724   -3.7125    0.0000 C   0  0  0  0  0  0  0  0  0  0  0  0
    2.8579   -4.1250    0.0000 C   0  0  0  0  0  0  0  0  0  0  0  0
    0.7145   -2.8875    0.0000 C   0  0  0  0  0  0  0  0  0  0  0  0
    0.0000   -2.4750    0.0000 C   0  0  0  0  0  0  0  0  0  0  0  0
    0.0000   -1.6500    0.0000 C   0  0  0  0  0  0  0  0  0  0  0  0
    0.7145   -1.2375    0.0000 N   0  0  0  0  0  0  0  0  0  0  0  0
    1.4289   -1.6500    0.0000 C   0  0  0  0  0  0  0  0  0  0  0  0
    1.4289   -2.4750    0.0000 C   0  0  0  0  0  0  0  0  0  0  0  0
    0.7145   -0.4125    0.0000 C   0  0  0  0  0  0  0  0  0  0  0  0
    0.0000    0.0000    0.0000 N   0  0  0  0  0  0  0  0  0  0  0  0
    0.0000    0.8250    0.0000 C   0  0  0  0  0  0  0  0  0  0  0  0
   -0.7145    1.2375    0.0000 N   0  0  0  0  0  0  0  0  0  0  0  0
   -1.4289    0.8250    0.0000 C   0  0  0  0  0  0  0  0  0  0  0  0
   -2.1434    1.2375    0.0000 C   0  0  0  0  0  0  0  0  0  0  0  0
   -2.1434    2.0625    0.0000 C   0  0  0  0  0  0  0  0  0  0  0  0
    0.7145    1.2375    0.0000 N   0  0  0  0  0  0  0  0  0  0  0  0
    1.4289    0.8250    0.0000 C   0  0  0  0  0  0  0  0  0  0  0  0
    2.1434    1.2375    0.0000 N   0  0  0  0  0  0  0  0  0  0  0  0
    2.8579    0.8250    0.0000 C   0  0  0  0  0  0  0  0  0  0  0  0
    3.5724    1.2375    0.0000 C   0  0  0  0  0  0  0  0  0  0  0  0
    4.2868    0.8250    0.0000 C   0  0  0  0  0  0  0  0  0  0  0  0
    1.4289    0.0000    0.0000 N   0  0  0  0  0  0  0  0  0  0  0  0
  1  2  1  0  0  0  0
  2  3  1  0  0  0  0
  3  4  1  0  0  0  0
  3 19  1  0  0  0  0
  4  5  1  0  0  0  0
  4 12  1  0  0  0  0
  5  6  2  0  0  0  0
  5 11  1  0  0  0  0
  6  7  1  0  0  0  0
  7  8  2  0  0  0  0
  8  9  1  0  0  0  0
  8 10  1  0  0  0  0
 10 11  2  0  0  0  0
 12 13  2  0  0  0  0
 12 18  1  0  0  0  0
 13 14  1  0  0  0  0
 14 15  2  0  0  0  0
 15 16  1  0  0  0  0
 15 17  1  0  0  0  0
 17 18  2  0  0  0  0
 19 20  1  0  0  0  0
 19 24  1  0  0  0  0
 20 21  1  0  0  0  0
 21 22  1  0  0  0  0
 22 23  1  0  0  0  0
 22 25  1  0  0  0  0
 23 24  1  0  0  0  0
 25 26  2  0  0  0  0
 25 38  1  0  0  0  0
 26 27  1  0  0  0  0
 27 28  1  0  0  0  0
 27 32  2  0  0  0  0
 28 29  1  0  0  0  0
 29 30  1  0  0  0  0
 30 31  2  0  0  0  0
 32 33  1  0  0  0  0
 33 34  1  0  0  0  0
 33 38  2  0  0  0  0
 34 35  1  0  0  0  0
 35 36  1  0  0  0  0
 36 37  2  0  0  0  0
M  END
$$$$

 OpenBabel12191814062D

 25 28  0  0  0  0  0  0  0  0999 V2000
    6.1368    3.7125    0.0000 C   0  0  0  0  0  0  0  0  0  0  0  0
    5.4223    3.3000    0.0000 C   0  0  0  0  0  0  0  0  0  0  0  0
    5.4223    2.4750    0.0000 N   0  0  0  0  0  0  0  0  0  0  0  0
    6.1368    2.0625    0.0000 C   0  0  0  0  0  0  0  0  0  0  0  0
    6.1368    1.2375    0.0000 C   0  0  0  0  0  0  0  0  0  0  0  0
    4.7079    2.0625    0.0000 C   0  0  0  0  0  0  0  0  0  0  0  0
    3.9934    2.4750    0.0000 O   0  0  0  0  0  0  0  0  0  0  0  0
    4.7079    1.2375    0.0000 N   0  0  0  0  0  0  0  0  0  0  0  0
    3.9934    0.8250    0.0000 C   0  0  3  0  0  0  0  0  0  0  0  0
    3.9934   -0.0000    0.0000 C   0  0  0  0  0  0  0  0  0  0  0  0
    3.2789   -0.4125    0.0000 N   0  0  0  0  0  0  0  0  0  0  0  0
    3.2789   -1.2375    0.0000 C   0  0  0  0  0  0  0  0  0  0  0  0
    2.5645   -0.0000    0.0000 C   0  0  3  0  0  0  0  0  0  0  0  0
    1.8500   -0.4125    0.0000 C   0  0  0  0  0  0  0  0  0  0  0  0
    1.1355   -0.0000    0.0000 C   0  0  0  0  0  0  0  0  0  0  0  0
    0.3509   -0.2549    0.0000 C   0  0  0  0  0  0  0  0  0  0  0  0
   -0.1340    0.4125    0.0000 N   0  0  0  0  0  0  0  0  0  0  0  0
    0.3509    1.0799    0.0000 C   0  0  0  0  0  0  0  0  0  0  0  0
    0.1794    1.8869    0.0000 C   0  0  0  0  0  0  0  0  0  0  0  0
    0.7925    2.4389    0.0000 C   0  0  0  0  0  0  0  0  0  0  0  0
    1.5771    2.1840    0.0000 C   0  0  0  0  0  0  0  0  0  0  0  0
    1.8500    1.2375    0.0000 C   0  0  0  0  0  0  0  0  0  0  0  0
    2.5645    0.8250    0.0000 C   0  0  0  0  0  0  0  0  0  0  0  0
    3.2789    1.2375    0.0000 C   0  0  0  0  0  0  0  0  0  0  0  0
    1.1355    0.8250    0.0000 C   0  0  0  0  0  0  0  0  0  0  0  0
  1  2  1  0  0  0  0
  2  3  1  0  0  0  0
  3  4  1  0  0  0  0
  3  6  1  0  0  0  0
  4  5  1  0  0  0  0
  6  7  2  0  0  0  0
  6  8  1  0  0  0  0
  8  9  1  0  0  0  0
  9 10  1  0  0  0  0
  9 24  1  0  0  0  0
 10 11  1  0  0  0  0
 11 12  1  0  0  0  0
 11 13  1  0  0  0  0
 13 14  1  0  0  0  0
 13 23  1  0  0  0  0
 14 15  1  0  0  0  0
 15 16  2  0  0  0  0
 15 25  1  0  0  0  0
 16 17  1  0  0  0  0
 17 18  1  0  0  0  0
 18 19  2  0  0  0  0
 18 25  1  0  0  0  0
 19 20  1  0  0  0  0
 20 21  2  0  0  0  0
 21 22  1  0  0  0  0
 22 23  1  0  0  0  0
 22 25  2  0  0  0  0
 23 24  2  0  0  0  0
M  END
$$$$

 OpenBabel12191814062D

 40 43  0  0  0  0  0  0  0  0999 V2000
   -1.6054   -7.4300    0.0000 C   0  0  0  0  0  0  0  0  0  0  0  0
   -0.7804   -7.4300    0.0000 C   0  0  0  0  0  0  0  0  0  0  0  0
   -0.3679   -8.1445    0.0000 N   0  0  0  0  0  0  0  0  0  0  0  0
   -0.7804   -8.8589    0.0000 C   0  0  0  0  0  0  0  0  0  0  0  0
   -1.6054   -8.8589    0.0000 C   0  0  0  0  0  0  0  0  0  0  0  0
    0.4571   -8.1445    0.0000 C   0  0  0  0  0  0  0  0  0  0  0  0
    0.8696   -7.4300    0.0000 O   0  0  0  0  0  0  0  0  0  0  0  0
    0.8696   -8.8589    0.0000 O   0  0  0  0  0  0  0  0  0  0  0  0
    1.6946   -8.8589    0.0000 C   0  0  0  0  0  0  0  0  0  0  0  0
    2.1071   -9.5734    0.0000 C   0  0  0  0  0  0  0  0  0  0  0  0
    2.9321   -9.5734    0.0000 C   0  0  0  0  0  0  0  0  0  0  0  0
    3.3446  -10.2879    0.0000 C   0  0  0  0  0  0  0  0  0  0  0  0
    4.1696  -10.2879    0.0000 C   0  0  0  0  0  0  0  0  0  0  0  0
    4.5821  -11.0024    0.0000 C   0  0  0  0  0  0  0  0  0  0  0  0
    4.1696  -11.7168    0.0000 C   0  0  0  0  0  0  0  0  0  0  0  0
    3.3446  -11.7168    0.0000 C   0  0  0  0  0  0  0  0  0  0  0  0
    2.9321  -11.0024    0.0000 C   0  0  0  0  0  0  0  0  0  0  0  0
    4.5821  -12.4313    0.0000 C   0  0  0  0  0  0  0  0  0  0  0  0
    5.4026  -12.5175    0.0000 N   0  0  0  0  0  0  0  0  0  0  0  0
    5.5741  -13.3245    0.0000 C   0  0  0  0  0  0  0  0  0  0  0  0
    4.8596  -13.7370    0.0000 C   0  0  0  0  0  0  0  0  0  0  0  0
    4.2465  -13.1850    0.0000 N   0  0  0  0  0  0  0  0  0  0  0  0
    4.7734  -14.5575    0.0000 C   0  0  0  0  0  0  0  0  0  0  0  0
    5.4408  -15.0424    0.0000 C   0  0  0  0  0  0  0  0  0  0  0  0
    5.3546  -15.8629    0.0000 C   0  0  0  0  0  0  0  0  0  0  0  0
    4.6009  -16.1984    0.0000 C   0  0  0  0  0  0  0  0  0  0  0  0
    3.9335  -15.7135    0.0000 C   0  0  0  0  0  0  0  0  0  0  0  0
    4.0197  -14.8930    0.0000 C   0  0  0  0  0  0  0  0  0  0  0  0
    4.5147  -17.0189    0.0000 N   0  0  0  0  0  0  0  0  0  0  0  0
    5.1821  -17.5038    0.0000 C   0  0  0  0  0  0  0  0  0  0  0  0
    3.7610  -17.3545    0.0000 C   0  0  0  0  0  0  0  0  0  0  0  0
    6.3278  -13.6601    0.0000 C   0  0  0  0  0  0  0  0  0  0  0  0
    6.9952  -13.1751    0.0000 C   0  0  0  0  0  0  0  0  0  0  0  0
    7.7489  -13.5107    0.0000 C   0  0  0  0  0  0  0  0  0  0  0  0
    7.8351  -14.3312    0.0000 C   0  0  0  0  0  0  0  0  0  0  0  0
    7.1677  -14.8161    0.0000 C   0  0  0  0  0  0  0  0  0  0  0  0
    6.4140  -14.4805    0.0000 C   0  0  0  0  0  0  0  0  0  0  0  0
    8.5888  -14.6667    0.0000 N   0  0  0  0  0  0  0  0  0  0  0  0
    8.6750  -15.4872    0.0000 C   0  0  0  0  0  0  0  0  0  0  0  0
    9.2562  -14.1818    0.0000 C   0  0  0  0  0  0  0  0  0  0  0  0
  1  2  1  0  0  0  0
  2  3  1  0  0  0  0
  3  4  1  0  0  0  0
  3  6  1  0  0  0  0
  4  5  1  0  0  0  0
  6  7  2  0  0  0  0
  6  8  1  0  0  0  0
  8  9  1  0  0  0  0
  9 10  1  0  0  0  0
 10 11  2  0  0  0  0
 11 12  1  0  0  0  0
 12 13  2  0  0  0  0
 12 17  1  0  0  0  0
 13 14  1  0  0  0  0
 14 15  2  0  0  0  0
 15 16  1  0  0  0  0
 15 18  1  0  0  0  0
 16 17  2  0  0  0  0
 18 19  1  0  0  0  0
 18 22  2  0  0  0  0
 19 20  1  0  0  0  0
 20 21  2  0  0  0  0
 20 32  1  0  0  0  0
 21 22  1  0  0  0  0
 21 23  1  0  0  0  0
 23 24  2  0  0  0  0
 23 28  1  0  0  0  0
 24 25  1  0  0  0  0
 25 26  2  0  0  0  0
 26 27  1  0  0  0  0
 26 29  1  0  0  0  0
 27 28  2  0  0  0  0
 29 30  1  0  0  0  0
 29 31  1  0  0  0  0
 32 33  2  0  0  0  0
 32 37  1  0  0  0  0
 33 34  1  0  0  0  0
 34 35  2  0  0  0  0
 35 36  1  0  0  0  0
 35 38  1  0  0  0  0
 36 37  2  0  0  0  0
 38 39  1  0  0  0  0
 38 40  1  0  0  0  0
M  END
$$$$

 OpenBabel12191814062D

 39 42  0  0  0  0  0  0  0  0999 V2000
    0.0000    3.3000    0.0000 C   0  0  0  0  0  0  0  0  0  0  0  0
    0.0000    2.4750    0.0000 C   0  0  0  0  0  0  0  0  0  0  0  0
    0.7145    2.0625    0.0000 N   0  0  0  0  0  0  0  0  0  0  0  0
    1.4289    2.4750    0.0000 C   0  0  0  0  0  0  0  0  0  0  0  0
    2.1434    2.0625    0.0000 C   0  0  0  0  0  0  0  0  0  0  0  0
    0.7145    1.2375    0.0000 C   0  0  0  0  0  0  0  0  0  0  0  0
    1.4289    0.8250    0.0000 C   0  0  0  0  0  0  0  0  0  0  0  0
    1.4289   -0.0000    0.0000 C   0  0  0  0  0  0  0  0  0  0  0  0
    0.7145   -0.4125    0.0000 C   0  0  0  0  0  0  0  0  0  0  0  0
    0.0000   -0.0000    0.0000 C   0  0  0  0  0  0  0  0  0  0  0  0
    0.0000    0.8250    0.0000 C   0  0  0  0  0  0  0  0  0  0  0  0
    0.7145   -1.2375    0.0000 C   0  0  0  0  0  0  0  0  0  0  0  0
    1.3819   -1.7224    0.0000 N   0  0  0  0  0  0  0  0  0  0  0  0
    1.1270   -2.5070    0.0000 C   0  0  0  0  0  0  0  0  0  0  0  0
    0.3020   -2.5070    0.0000 N   0  0  0  0  0  0  0  0  0  0  0  0
    0.0470   -1.7224    0.0000 C   0  0  0  0  0  0  0  0  0  0  0  0
   -0.7376   -1.4675    0.0000 C   0  0  0  0  0  0  0  0  0  0  0  0
   -1.3507   -2.0195    0.0000 C   0  0  0  0  0  0  0  0  0  0  0  0
   -2.1353   -1.7646    0.0000 C   0  0  0  0  0  0  0  0  0  0  0  0
   -2.3068   -0.9576    0.0000 C   0  0  0  0  0  0  0  0  0  0  0  0
   -1.6937   -0.4056    0.0000 C   0  0  0  0  0  0  0  0  0  0  0  0
   -0.9091   -0.6605    0.0000 C   0  0  0  0  0  0  0  0  0  0  0  0
   -3.0915   -0.7027    0.0000 N   0  0  0  0  0  0  0  0  0  0  0  0
   -3.7045   -1.2547    0.0000 C   0  0  0  0  0  0  0  0  0  0  0  0
   -4.4892   -0.9998    0.0000 C   0  0  0  0  0  0  0  0  0  0  0  0
   -3.2630    0.1043    0.0000 C   0  0  0  0  0  0  0  0  0  0  0  0
   -2.6499    0.6563    0.0000 C   0  0  0  0  0  0  0  0  0  0  0  0
    1.6119   -3.1745    0.0000 C   0  0  0  0  0  0  0  0  0  0  0  0
    2.4324   -3.0882    0.0000 C   0  0  0  0  0  0  0  0  0  0  0  0
    2.9173   -3.7557    0.0000 C   0  0  0  0  0  0  0  0  0  0  0  0
    2.5817   -4.5094    0.0000 C   0  0  0  0  0  0  0  0  0  0  0  0
    3.0667   -5.1768    0.0000 C   0  0  0  0  0  0  0  0  0  0  0  0
    2.7311   -5.9305    0.0000 C   0  0  0  0  0  0  0  0  0  0  0  0
    3.2160   -6.5979    0.0000 C   0  0  0  0  0  0  0  0  0  0  0  0
    4.0365   -6.5117    0.0000 O   0  0  0  0  0  0  0  0  0  0  0  0
    2.8805   -7.3516    0.0000 O   0  0  0  0  0  0  0  0  0  0  0  0
    3.3654   -8.0190    0.0000 C   0  0  0  0  0  0  0  0  0  0  0  0
    1.7613   -4.5956    0.0000 C   0  0  0  0  0  0  0  0  0  0  0  0
    1.2763   -3.9282    0.0000 C   0  0  0  0  0  0  0  0  0  0  0  0
  1  2  1  0  0  0  0
  2  3  1  0  0  0  0
  3  4  1  0  0  0  0
  3  6  1  0  0  0  0
  4  5  1  0  0  0  0
  6  7  2  0  0  0  0
  6 11  1  0  0  0  0
  7  8  1  0  0  0  0
  8  9  2  0  0  0  0
  9 10  1  0  0  0  0
  9 12  1  0  0  0  0
 10 11  2  0  0  0  0
 12 13  1  0  0  0  0
 12 16  2  0  0  0  0
 13 14  1  0  0  0  0
 14 15  2  0  0  0  0
 14 28  1  0  0  0  0
 15 16  1  0  0  0  0
 16 17  1  0  0  0  0
 17 18  2  0  0  0  0
 17 22  1  0  0  0  0
 18 19  1  0  0  0  0
 19 20  2  0  0  0  0
 20 21  1  0  0  0  0
 20 23  1  0  0  0  0
 21 22  2  0  0  0  0
 23 24  1  0  0  0  0
 23 26  1  0  0  0  0
 24 25  1  0  0  0  0
 26 27  1  0  0  0  0
 28 29  2  0  0  0  0
 28 39  1  0  0  0  0
 29 30  1  0  0  0  0
 30 31  2  0  0  0  0
 31 32  1  0  0  0  0
 31 38  1  0  0  0  0
 32 33  2  0  0  0  0
 33 34  1  0  0  0  0
 34 35  2  0  0  0  0
 34 36  1  0  0  0  0
 36 37  1  0  0  0  0
 38 39  2  0  0  0  0
M  END
$$$$

 OpenBabel12191814062D

 35 38  0  0  0  0  0  0  0  0999 V2000
    0.0000    3.3000    0.0000 C   0  0  0  0  0  0  0  0  0  0  0  0
    0.0000    2.4750    0.0000 C   0  0  0  0  0  0  0  0  0  0  0  0
    0.7145    2.0625    0.0000 N   0  0  0  0  0  0  0  0  0  0  0  0
    1.4289    2.4750    0.0000 C   0  0  0  0  0  0  0  0  0  0  0  0
    2.1434    2.0625    0.0000 C   0  0  0  0  0  0  0  0  0  0  0  0
    0.7145    1.2375    0.0000 C   0  0  0  0  0  0  0  0  0  0  0  0
    1.4289    0.8250    0.0000 C   0  0  0  0  0  0  0  0  0  0  0  0
    1.4289   -0.0000    0.0000 C   0  0  0  0  0  0  0  0  0  0  0  0
    0.7145   -0.4125    0.0000 C   0  0  0  0  0  0  0  0  0  0  0  0
    0.0000   -0.0000    0.0000 C   0  0  0  0  0  0  0  0  0  0  0  0
    0.0000    0.8250    0.0000 C   0  0  0  0  0  0  0  0  0  0  0  0
    0.7145   -1.2375    0.0000 C   0  0  0  0  0  0  0  0  0  0  0  0
    1.3819   -1.7224    0.0000 N   0  0  0  0  0  0  0  0  0  0  0  0
    1.1270   -2.5070    0.0000 C   0  0  0  0  0  0  0  0  0  0  0  0
    0.3020   -2.5070    0.0000 N   0  0  0  0  0  0  0  0  0  0  0  0
    0.0470   -1.7224    0.0000 C   0  0  0  0  0  0  0  0  0  0  0  0
   -0.7376   -1.4675    0.0000 C   0  0  0  0  0  0  0  0  0  0  0  0
   -1.3507   -2.0195    0.0000 C   0  0  0  0  0  0  0  0  0  0  0  0
   -2.1353   -1.7646    0.0000 C   0  0  0  0  0  0  0  0  0  0  0  0
   -2.3068   -0.9576    0.0000 C   0  0  0  0  0  0  0  0  0  0  0  0
   -3.0915   -0.7027    0.0000 N   0  0  0  0  0  0  0  0  0  0  0  0
   -1.6937   -0.4056    0.0000 C   0  0  0  0  0  0  0  0  0  0  0  0
   -0.9091   -0.6605    0.0000 C   0  0  0  0  0  0  0  0  0  0  0  0
    1.6119   -3.1745    0.0000 C   0  0  0  0  0  0  0  0  0  0  0  0
    2.4324   -3.0882    0.0000 C   0  0  0  0  0  0  0  0  0  0  0  0
    2.9173   -3.7557    0.0000 C   0  0  0  0  0  0  0  0  0  0  0  0
    2.5817   -4.5094    0.0000 C   0  0  0  0  0  0  0  0  0  0  0  0
    3.0667   -5.1768    0.0000 C   0  0  0  0  0  0  0  0  0  0  0  0
    2.7311   -5.9305    0.0000 C   0  0  0  0  0  0  0  0  0  0  0  0
    3.2160   -6.5979    0.0000 C   0  0  0  0  0  0  0  0  0  0  0  0
    4.0365   -6.5117    0.0000 O   0  0  0  0  0  0  0  0  0  0  0  0
    2.8805   -7.3516    0.0000 O   0  0  0  0  0  0  0  0  0  0  0  0
    3.3654   -8.0190    0.0000 C   0  0  0  0  0  0  0  0  0  0  0  0
    1.7613   -4.5956    0.0000 C   0  0  0  0  0  0  0  0  0  0  0  0
    1.2763   -3.9282    0.0000 C   0  0  0  0  0  0  0  0  0  0  0  0
  1  2  1  0  0  0  0
  2  3  1  0  0  0  0
  3  4  1  0  0  0  0
  3  6  1  0  0  0  0
  4  5  1  0  0  0  0
  6  7  2  0  0  0  0
  6 11  1  0  0  0  0
  7  8  1  0  0  0  0
  8  9  2  0  0  0  0
  9 10  1  0  0  0  0
  9 12  1  0  0  0  0
 10 11  2  0  0  0  0
 12 13  1  0  0  0  0
 12 16  2  0  0  0  0
 13 14  1  0  0  0  0
 14 15  2  0  0  0  0
 14 24  1  0  0  0  0
 15 16  1  0  0  0  0
 16 17  1  0  0  0  0
 17 18  2  0  0  0  0
 17 23  1  0  0  0  0
 18 19  1  0  0  0  0
 19 20  2  0  0  0  0
 20 21  1  0  0  0  0
 20 22  1  0  0  0  0
 22 23  2  0  0  0  0
 24 25  2  0  0  0  0
 24 35  1  0  0  0  0
 25 26  1  0  0  0  0
 26 27  2  0  0  0  0
 27 28  1  0  0  0  0
 27 34  1  0  0  0  0
 28 29  2  0  0  0  0
 29 30  1  0  0  0  0
 30 31  2  0  0  0  0
 30 32  1  0  0  0  0
 32 33  1  0  0  0  0
 34 35  2  0  0  0  0
M  END
$$$$

 OpenBabel12191814062D

 36 39  0  0  0  0  0  0  0  0999 V2000
    0.0000    3.3000    0.0000 C   0  0  0  0  0  0  0  0  0  0  0  0
    0.0000    2.4750    0.0000 C   0  0  0  0  0  0  0  0  0  0  0  0
    0.7145    2.0625    0.0000 N   0  0  0  0  0  0  0  0  0  0  0  0
    1.4289    2.4750    0.0000 C   0  0  0  0  0  0  0  0  0  0  0  0
    2.1434    2.0625    0.0000 C   0  0  0  0  0  0  0  0  0  0  0  0
    0.7145    1.2375    0.0000 C   0  0  0  0  0  0  0  0  0  0  0  0
    1.4289    0.8250    0.0000 C   0  0  0  0  0  0  0  0  0  0  0  0
    1.4289   -0.0000    0.0000 C   0  0  0  0  0  0  0  0  0  0  0  0
    0.7145   -0.4125    0.0000 C   0  0  0  0  0  0  0  0  0  0  0  0
    0.0000   -0.0000    0.0000 C   0  0  0  0  0  0  0  0  0  0  0  0
    0.0000    0.8250    0.0000 C   0  0  0  0  0  0  0  0  0  0  0  0
    0.7145   -1.2375    0.0000 C   0  0  0  0  0  0  0  0  0  0  0  0
    1.3819   -1.7224    0.0000 N   0  0  0  0  0  0  0  0  0  0  0  0
    1.1270   -2.5070    0.0000 C   0  0  0  0  0  0  0  0  0  0  0  0
    0.3020   -2.5070    0.0000 N   0  0  0  0  0  0  0  0  0  0  0  0
    0.0470   -1.7224    0.0000 C   0  0  0  0  0  0  0  0  0  0  0  0
   -0.7376   -1.4675    0.0000 C   0  0  0  0  0  0  0  0  0  0  0  0
   -1.3507   -2.0195    0.0000 C   0  0  0  0  0  0  0  0  0  0  0  0
   -2.1353   -1.7646    0.0000 C   0  0  0  0  0  0  0  0  0  0  0  0
   -2.3068   -0.9576    0.0000 C   0  0  0  0  0  0  0  0  0  0  0  0
   -3.0915   -0.7027    0.0000 N   0  0  0  0  0  0  0  0  0  0  0  0
   -3.2630    0.1043    0.0000 C   0  0  0  0  0  0  0  0  0  0  0  0
   -1.6937   -0.4056    0.0000 C   0  0  0  0  0  0  0  0  0  0  0  0
   -0.9091   -0.6605    0.0000 C   0  0  0  0  0  0  0  0  0  0  0  0
    1.6119   -3.1745    0.0000 C   0  0  0  0  0  0  0  0  0  0  0  0
    2.4324   -3.0882    0.0000 C   0  0  0  0  0  0  0  0  0  0  0  0
    2.9173   -3.7557    0.0000 C   0  0  0  0  0  0  0  0  0  0  0  0
    2.5817   -4.5094    0.0000 C   0  0  0  0  0  0  0  0  0  0  0  0
    3.0667   -5.1768    0.0000 C   0  0  0  0  0  0  0  0  0  0  0  0
    2.7311   -5.9305    0.0000 C   0  0  0  0  0  0  0  0  0  0  0  0
    3.2160   -6.5979    0.0000 C   0  0  0  0  0  0  0  0  0  0  0  0
    4.0365   -6.5117    0.0000 O   0  0  0  0  0  0  0  0  0  0  0  0
    2.8805   -7.3516    0.0000 O   0  0  0  0  0  0  0  0  0  0  0  0
    3.3654   -8.0190    0.0000 C   0  0  0  0  0  0  0  0  0  0  0  0
    1.7613   -4.5956    0.0000 C   0  0  0  0  0  0  0  0  0  0  0  0
    1.2763   -3.9282    0.0000 C   0  0  0  0  0  0  0  0  0  0  0  0
  1  2  1  0  0  0  0
  2  3  1  0  0  0  0
  3  4  1  0  0  0  0
  3  6  1  0  0  0  0
  4  5  1  0  0  0  0
  6  7  2  0  0  0  0
  6 11  1  0  0  0  0
  7  8  1  0  0  0  0
  8  9  2  0  0  0  0
  9 10  1  0  0  0  0
  9 12  1  0  0  0  0
 10 11  2  0  0  0  0
 12 13  1  0  0  0  0
 12 16  2  0  0  0  0
 13 14  1  0  0  0  0
 14 15  2  0  0  0  0
 14 25  1  0  0  0  0
 15 16  1  0  0  0  0
 16 17  1  0  0  0  0
 17 18  2  0  0  0  0
 17 24  1  0  0  0  0
 18 19  1  0  0  0  0
 19 20  2  0  0  0  0
 20 21  1  0  0  0  0
 20 23  1  0  0  0  0
 21 22  1  0  0  0  0
 23 24  2  0  0  0  0
 25 26  2  0  0  0  0
 25 36  1  0  0  0  0
 26 27  1  0  0  0  0
 27 28  2  0  0  0  0
 28 29  1  0  0  0  0
 28 35  1  0  0  0  0
 29 30  2  0  0  0  0
 30 31  1  0  0  0  0
 31 32  2  0  0  0  0
 31 33  1  0  0  0  0
 33 34  1  0  0  0  0
 35 36  2  0  0  0  0
M  END
$$$$

 OpenBabel12191814062D

 36 37  0  0  0  0  0  0  0  0999 V2000
    0.0809   -6.4599    0.0000 C   0  0  0  0  0  0  0  0  0  0  0  0
   -0.3316   -5.7454    0.0000 C   0  0  0  0  0  0  0  0  0  0  0  0
    0.0809   -5.0309    0.0000 N   0  0  0  0  0  0  0  0  0  0  0  0
   -0.3316   -4.3164    0.0000 C   0  0  0  0  0  0  0  0  0  0  0  0
    0.0809   -3.6020    0.0000 C   0  0  0  0  0  0  0  0  0  0  0  0
    0.9059   -5.0309    0.0000 C   0  0  0  0  0  0  0  0  0  0  0  0
    1.3184   -4.3164    0.0000 N   0  0  0  0  0  0  0  0  0  0  0  0
    2.1434   -4.3164    0.0000 C   0  0  0  0  0  0  0  0  0  0  0  0
    2.5559   -5.0309    0.0000 N   0  0  0  0  0  0  0  0  0  0  0  0
    2.1434   -5.7454    0.0000 C   0  0  0  0  0  0  0  0  0  0  0  0
    2.5559   -6.4599    0.0000 C   0  0  0  0  0  0  0  0  0  0  0  0
    2.1434   -7.1743    0.0000 N   0  0  0  0  0  0  0  0  0  0  0  0
    1.3184   -7.1743    0.0000 C   0  0  0  0  0  0  0  0  0  0  0  0
    0.9059   -6.4599    0.0000 N   0  0  0  0  0  0  0  0  0  0  0  0
    1.3184   -5.7454    0.0000 C   0  0  0  0  0  0  0  0  0  0  0  0
    0.9059   -7.8888    0.0000 N   0  0  0  0  0  0  0  0  0  0  0  0
    1.3184   -8.6033    0.0000 C   0  0  0  0  0  0  0  0  0  0  0  0
    2.1434   -8.6033    0.0000 C   0  0  0  0  0  0  0  0  0  0  0  0
    2.5559   -9.3177    0.0000 O   0  0  0  0  0  0  0  0  0  0  0  0
    0.0809   -7.8888    0.0000 C   0  0  0  0  0  0  0  0  0  0  0  0
   -0.3316   -8.6033    0.0000 C   0  0  0  0  0  0  0  0  0  0  0  0
   -1.1566   -8.6033    0.0000 O   0  0  0  0  0  0  0  0  0  0  0  0
   -1.5691   -9.3177    0.0000 C   0  0  0  0  0  0  0  0  0  0  0  0
    3.3809   -6.4599    0.0000 N   0  0  0  0  0  0  0  0  0  0  0  0
    3.7934   -5.7454    0.0000 C   0  0  0  0  0  0  0  0  0  0  0  0
    4.6184   -5.7454    0.0000 C   0  0  0  0  0  0  0  0  0  0  0  0
    3.7934   -7.1743    0.0000 C   0  0  0  0  0  0  0  0  0  0  0  0
    3.3809   -7.8888    0.0000 C   0  0  0  0  0  0  0  0  0  0  0  0
    2.5559   -3.6020    0.0000 N   0  0  0  0  0  0  0  0  0  0  0  0
    2.1434   -2.8875    0.0000 C   0  0  0  0  0  0  0  0  0  0  0  0
    1.3184   -2.8875    0.0000 C   0  0  0  0  0  0  0  0  0  0  0  0
    0.9059   -2.1730    0.0000 O   0  0  0  0  0  0  0  0  0  0  0  0
    3.3809   -3.6020    0.0000 C   0  0  0  0  0  0  0  0  0  0  0  0
    3.7934   -2.8875    0.0000 C   0  0  0  0  0  0  0  0  0  0  0  0
    4.6184   -2.8875    0.0000 O   0  0  0  0  0  0  0  0  0  0  0  0
    5.0309   -2.1730    0.0000 C   0  0  0  0  0  0  0  0  0  0  0  0
  1  2  1  0  0  0  0
  2  3  1  0  0  0  0
  3  4  1  0  0  0  0
  3  6  1  0  0  0  0
  4  5  1  0  0  0  0
  6  7  2  0  0  0  0
  6 15  1  0  0  0  0
  7  8  1  0  0  0  0
  8  9  2  0  0  0  0
  8 29  1  0  0  0  0
  9 10  1  0  0  0  0
 10 11  2  0  0  0  0
 10 15  1  0  0  0  0
 11 12  1  0  0  0  0
 11 24  1  0  0  0  0
 12 13  2  0  0  0  0
 13 14  1  0  0  0  0
 13 16  1  0  0  0  0
 14 15  2  0  0  0  0
 16 17  1  0  0  0  0
 16 20  1  0  0  0  0
 17 18  1  0  0  0  0
 18 19  1  0  0  0  0
 20 21  1  0  0  0  0
 21 22  1  0  0  0  0
 22 23  1  0  0  0  0
 24 25  1  0  0  0  0
 24 27  1  0  0  0  0
 25 26  1  0  0  0  0
 27 28  1  0  0  0  0
 29 30  1  0  0  0  0
 29 33  1  0  0  0  0
 30 31  1  0  0  0  0
 31 32  1  0  0  0  0
 33 34  1  0  0  0  0
 34 35  1  0  0  0  0
 35 36  1  0  0  0  0
M  END
$$$$

 OpenBabel12191814062D

 26 27  0  0  0  0  0  0  0  0999 V2000
   -1.2079    5.7750    0.0000 C   0  0  0  0  0  0  0  0  0  0  0  0
   -1.2079    4.9500    0.0000 C   0  0  0  0  0  0  0  0  0  0  0  0
   -0.4934    4.5375    0.0000 N   0  0  0  0  0  0  0  0  0  0  0  0
    0.2211    4.9500    0.0000 C   0  0  0  0  0  0  0  0  0  0  0  0
    0.9355    4.5375    0.0000 C   0  0  0  0  0  0  0  0  0  0  0  0
   -0.4934    3.7125    0.0000 C   0  0  0  0  0  0  0  0  0  0  0  0
    0.2211    3.3000    0.0000 C   0  0  0  0  0  0  0  0  0  0  0  0
    0.9355    2.8875    0.0000 C   0  0  0  0  0  0  0  0  0  0  0  0
    1.6500    2.4750    0.0000 C   0  0  0  0  0  0  0  0  0  0  0  0
    1.6500    1.6500    0.0000 O   0  0  0  0  0  0  0  0  0  0  0  0
    2.3645    1.2375    0.0000 C   0  0  0  0  0  0  0  0  0  0  0  0
    3.0789    1.6500    0.0000 O   0  0  0  0  0  0  0  0  0  0  0  0
    2.3645    0.4125    0.0000 C   0  0  3  0  0  0  0  0  0  0  0  0
    1.5395    0.4125    0.0000 O   0  0  0  0  0  0  0  0  0  0  0  0
    2.3645   -0.4125    0.0000 C   0  0  0  0  0  0  0  0  0  0  0  0
    3.0789   -0.8250    0.0000 C   0  0  0  0  0  0  0  0  0  0  0  0
    3.0789   -1.6500    0.0000 C   0  0  0  0  0  0  0  0  0  0  0  0
    2.3645   -2.0625    0.0000 C   0  0  0  0  0  0  0  0  0  0  0  0
    1.6500   -1.6500    0.0000 C   0  0  0  0  0  0  0  0  0  0  0  0
    1.6500   -0.8250    0.0000 C   0  0  0  0  0  0  0  0  0  0  0  0
    3.1895    0.4125    0.0000 C   0  0  0  0  0  0  0  0  0  0  0  0
    3.6020    1.1270    0.0000 C   0  0  0  0  0  0  0  0  0  0  0  0
    4.4270    1.1270    0.0000 C   0  0  0  0  0  0  0  0  0  0  0  0
    4.8395    0.4125    0.0000 C   0  0  0  0  0  0  0  0  0  0  0  0
    4.4270   -0.3020    0.0000 C   0  0  0  0  0  0  0  0  0  0  0  0
    3.6020   -0.3020    0.0000 C   0  0  0  0  0  0  0  0  0  0  0  0
  1  2  1  0  0  0  0
  2  3  1  0  0  0  0
  3  4  1  0  0  0  0
  3  6  1  0  0  0  0
  4  5  1  0  0  0  0
  6  7  1  0  0  0  0
  7  8  3  0  0  0  0
  8  9  1  0  0  0  0
  9 10  1  0  0  0  0
 10 11  1  0  0  0  0
 11 12  2  0  0  0  0
 11 13  1  0  0  0  0
 13 14  1  0  0  0  0
 13 15  1  0  0  0  0
 13 21  1  0  0  0  0
 15 16  1  0  0  0  0
 15 20  1  0  0  0  0
 16 17  1  0  0  0  0
 17 18  1  0  0  0  0
 18 19  1  0  0  0  0
 19 20  1  0  0  0  0
 21 22  2  0  0  0  0
 21 26  1  0  0  0  0
 22 23  1  0  0  0  0
 23 24  2  0  0  0  0
 24 25  1  0  0  0  0
 25 26  2  0  0  0  0
M  END
$$$$

 OpenBabel12191814062D

 24 25  0  0  0  0  0  0  0  0999 V2000
    0.7145   -5.3625    0.0000 C   0  0  0  0  0  0  0  0  0  0  0  0
    1.4289   -4.9500    0.0000 C   0  0  0  0  0  0  0  0  0  0  0  0
    2.1434   -5.3625    0.0000 N   0  0  0  0  0  0  0  0  0  0  0  0
    2.1434   -6.1875    0.0000 C   0  0  0  0  0  0  0  0  0  0  0  0
    1.4289   -6.6000    0.0000 C   0  0  0  0  0  0  0  0  0  0  0  0
    2.8579   -4.9500    0.0000 C   0  0  0  0  0  0  0  0  0  0  0  0
    3.5724   -5.3625    0.0000 C   0  0  3  0  0  0  0  0  0  0  0  0
    3.5724   -6.1875    0.0000 O   0  0  0  0  0  0  0  0  0  0  0  0
    4.2868   -4.9500    0.0000 C   0  0  0  0  0  0  0  0  0  0  0  0
    5.0013   -5.3625    0.0000 O   0  0  0  0  0  0  0  0  0  0  0  0
    5.7158   -4.9500    0.0000 C   0  0  0  0  0  0  0  0  0  0  0  0
    5.7158   -4.1250    0.0000 C   0  0  0  0  0  0  0  0  0  0  0  0
    6.4302   -3.7125    0.0000 C   0  0  0  0  0  0  0  0  0  0  0  0
    7.1447   -4.1250    0.0000 C   0  0  0  0  0  0  0  0  0  0  0  0
    7.1447   -4.9500    0.0000 C   0  0  0  0  0  0  0  0  0  0  0  0
    6.4302   -5.3625    0.0000 C   0  0  0  0  0  0  0  0  0  0  0  0
    6.4302   -6.1875    0.0000 C   0  0  0  0  0  0  0  0  0  0  0  0
    5.7158   -6.6000    0.0000 O   0  0  0  0  0  0  0  0  0  0  0  0
    7.1447   -6.6000    0.0000 C   0  0  0  0  0  0  0  0  0  0  0  0
    7.8592   -6.1875    0.0000 C   0  0  0  0  0  0  0  0  0  0  0  0
    8.5737   -6.6000    0.0000 C   0  0  0  0  0  0  0  0  0  0  0  0
    8.5737   -7.4250    0.0000 C   0  0  0  0  0  0  0  0  0  0  0  0
    7.8592   -7.8375    0.0000 C   0  0  0  0  0  0  0  0  0  0  0  0
    7.1447   -7.4250    0.0000 C   0  0  0  0  0  0  0  0  0  0  0  0
  1  2  1  0  0  0  0
  2  3  1  0  0  0  0
  3  4  1  0  0  0  0
  3  6  1  0  0  0  0
  4  5  1  0  0  0  0
  6  7  1  0  0  0  0
  7  8  1  0  0  0  0
  7  9  1  0  0  0  0
  9 10  1  0  0  0  0
 10 11  1  0  0  0  0
 11 12  2  0  0  0  0
 11 16  1  0  0  0  0
 12 13  1  0  0  0  0
 13 14  2  0  0  0  0
 14 15  1  0  0  0  0
 15 16  2  0  0  0  0
 16 17  1  0  0  0  0
 17 18  2  0  0  0  0
 17 19  1  0  0  0  0
 19 20  2  0  0  0  0
 19 24  1  0  0  0  0
 20 21  1  0  0  0  0
 21 22  2  0  0  0  0
 22 23  1  0  0  0  0
 23 24  2  0  0  0  0
M  END
$$$$

 OpenBabel12191814062D

 26 27  0  0  0  0  0  0  0  0999 V2000
   -0.7145   -5.3625    0.0000 C   0  0  0  0  0  0  0  0  0  0  0  0
   -0.0000   -4.9500    0.0000 C   0  0  0  0  0  0  0  0  0  0  0  0
    0.7145   -5.3625    0.0000 N   0  0  0  0  0  0  0  0  0  0  0  0
    0.7145   -6.1875    0.0000 C   0  0  0  0  0  0  0  0  0  0  0  0
   -0.0000   -6.6000    0.0000 C   0  0  0  0  0  0  0  0  0  0  0  0
    1.4289   -4.9500    0.0000 C   0  0  0  0  0  0  0  0  0  0  0  0
    2.1434   -5.3625    0.0000 C   0  0  3  0  0  0  0  0  0  0  0  0
    2.1434   -6.1875    0.0000 O   0  0  0  0  0  0  0  0  0  0  0  0
    2.8579   -4.9500    0.0000 C   0  0  0  0  0  0  0  0  0  0  0  0
    3.5724   -5.3625    0.0000 O   0  0  0  0  0  0  0  0  0  0  0  0
    4.2868   -4.9500    0.0000 C   0  0  0  0  0  0  0  0  0  0  0  0
    4.2868   -4.1250    0.0000 C   0  0  0  0  0  0  0  0  0  0  0  0
    5.0013   -3.7125    0.0000 C   0  0  0  0  0  0  0  0  0  0  0  0
    5.7158   -4.1250    0.0000 C   0  0  0  0  0  0  0  0  0  0  0  0
    5.7158   -4.9500    0.0000 C   0  0  0  0  0  0  0  0  0  0  0  0
    5.0013   -5.3625    0.0000 C   0  0  0  0  0  0  0  0  0  0  0  0
    5.0013   -6.1875    0.0000 C   0  0  0  0  0  0  0  0  0  0  0  0
    5.7158   -6.6000    0.0000 O   0  0  0  0  0  0  0  0  0  0  0  0
    4.2868   -6.6000    0.0000 C   0  0  0  0  0  0  0  0  0  0  0  0
    4.2868   -7.4250    0.0000 C   0  0  0  0  0  0  0  0  0  0  0  0
    5.0013   -7.8375    0.0000 C   0  0  0  0  0  0  0  0  0  0  0  0
    5.7158   -7.4250    0.0000 C   0  0  0  0  0  0  0  0  0  0  0  0
    6.4302   -7.8375    0.0000 C   0  0  0  0  0  0  0  0  0  0  0  0
    6.4302   -8.6625    0.0000 C   0  0  0  0  0  0  0  0  0  0  0  0
    5.7158   -9.0750    0.0000 C   0  0  0  0  0  0  0  0  0  0  0  0
    5.0013   -8.6625    0.0000 C   0  0  0  0  0  0  0  0  0  0  0  0
  1  2  1  0  0  0  0
  2  3  1  0  0  0  0
  3  4  1  0  0  0  0
  3  6  1  0  0  0  0
  4  5  1  0  0  0  0
  6  7  1  0  0  0  0
  7  8  1  0  0  0  0
  7  9  1  0  0  0  0
  9 10  1  0  0  0  0
 10 11  1  0  0  0  0
 11 12  2  0  0  0  0
 11 16  1  0  0  0  0
 12 13  1  0  0  0  0
 13 14  2  0  0  0  0
 14 15  1  0  0  0  0
 15 16  2  0  0  0  0
 16 17  1  0  0  0  0
 17 18  2  0  0  0  0
 17 19  1  0  0  0  0
 19 20  1  0  0  0  0
 20 21  1  0  0  0  0
 21 22  2  0  0  0  0
 21 26  1  0  0  0  0
 22 23  1  0  0  0  0
 23 24  2  0  0  0  0
 24 25  1  0  0  0  0
 25 26  2  0  0  0  0
M  END
$$$$

 OpenBabel12191814062D

 24 26  0  0  0  0  0  0  0  0999 V2000
    2.0329    3.9039    0.0000 C   0  0  0  0  0  0  0  0  0  0  0  0
    2.8579    3.9039    0.0000 C   0  0  0  0  0  0  0  0  0  0  0  0
    3.2704    3.1895    0.0000 N   0  0  0  0  0  0  0  0  0  0  0  0
    2.8579    2.4750    0.0000 C   0  0  0  0  0  0  0  0  0  0  0  0
    2.0329    2.4750    0.0000 C   0  0  0  0  0  0  0  0  0  0  0  0
    4.0954    3.1895    0.0000 C   0  0  0  0  0  0  0  0  0  0  0  0
    4.5079    2.4750    0.0000 C   0  0  0  0  0  0  0  0  0  0  0  0
    5.3329    2.4750    0.0000 C   0  0  0  0  0  0  0  0  0  0  0  0
    5.7454    3.1895    0.0000 O   0  0  0  0  0  0  0  0  0  0  0  0
    5.7454    1.7605    0.0000 N   0  0  0  0  0  0  0  0  0  0  0  0
    6.5704    1.7605    0.0000 C   0  0  0  0  0  0  0  0  0  0  0  0
    6.9829    2.4750    0.0000 C   0  0  0  0  0  0  0  0  0  0  0  0
    7.8079    2.4750    0.0000 C   0  0  0  0  0  0  0  0  0  0  0  0
    8.2204    1.7605    0.0000 C   0  0  0  0  0  0  0  0  0  0  0  0
    7.8079    1.0461    0.0000 C   0  0  0  0  0  0  0  0  0  0  0  0
    6.9829    1.0461    0.0000 C   0  0  0  0  0  0  0  0  0  0  0  0
    6.5704    0.3316    0.0000 S   0  0  0  0  0  0  0  0  0  0  0  0
    5.7454    0.3316    0.0000 C   0  0  0  0  0  0  0  0  0  0  0  0
    5.3329   -0.3829    0.0000 C   0  0  0  0  0  0  0  0  0  0  0  0
    4.5079   -0.3829    0.0000 C   0  0  0  0  0  0  0  0  0  0  0  0
    4.0954    0.3316    0.0000 C   0  0  0  0  0  0  0  0  0  0  0  0
    3.2704    0.3316    0.0000 Cl  0  0  0  0  0  0  0  0  0  0  0  0
    4.5079    1.0461    0.0000 C   0  0  0  0  0  0  0  0  0  0  0  0
    5.3329    1.0461    0.0000 C   0  0  0  0  0  0  0  0  0  0  0  0
  1  2  1  0  0  0  0
  2  3  1  0  0  0  0
  3  4  1  0  0  0  0
  3  6  1  0  0  0  0
  4  5  1  0  0  0  0
  6  7  1  0  0  0  0
  7  8  1  0  0  0  0
  8  9  2  0  0  0  0
  8 10  1  0  0  0  0
 10 11  1  0  0  0  0
 10 24  1  0  0  0  0
 11 12  2  0  0  0  0
 11 16  1  0  0  0  0
 12 13  1  0  0  0  0
 13 14  2  0  0  0  0
 14 15  1  0  0  0  0
 15 16  2  0  0  0  0
 16 17  1  0  0  0  0
 17 18  1  0  0  0  0
 18 19  2  0  0  0  0
 18 24  1  0  0  0  0
 19 20  1  0  0  0  0
 20 21  2  0  0  0  0
 21 22  1  0  0  0  0
 21 23  1  0  0  0  0
 23 24  2  0  0  0  0
M  END
$$$$

 OpenBabel12191814062D

 23 24  0  0  0  0  0  0  0  0999 V2000
    5.3501   -2.4848    0.0000 C   0  0  0  0  0  0  0  0  0  0  0  0
    6.1602   -2.6407    0.0000 C   0  0  0  0  0  0  0  0  0  0  0  0
    6.7003   -2.0171    0.0000 N   0  0  0  0  0  0  0  0  0  0  0  0
    6.4302   -1.2375    0.0000 C   0  0  0  0  0  0  0  0  0  0  0  0
    6.9703   -0.6139    0.0000 C   0  0  0  0  0  0  0  0  0  0  0  0
    7.5104   -2.1730    0.0000 C   0  0  0  0  0  0  0  0  0  0  0  0
    8.0505   -1.5493    0.0000 C   0  0  0  0  0  0  0  0  0  0  0  0
    8.8606   -1.7052    0.0000 C   0  0  0  0  0  0  0  0  0  0  0  0
    9.4007   -1.0816    0.0000 C   0  0  3  0  0  0  0  0  0  0  0  0
    9.1307   -0.3020    0.0000 C   0  0  0  0  0  0  0  0  0  0  0  0
   10.2109   -1.2375    0.0000 N   0  0  0  0  0  0  0  0  0  0  0  0
   10.7510   -0.6139    0.0000 C   0  0  0  0  0  0  0  0  0  0  0  0
   10.4809    0.1657    0.0000 C   0  0  0  0  0  0  0  0  0  0  0  0
    9.6708    0.3216    0.0000 C   0  0  0  0  0  0  0  0  0  0  0  0
   11.0210    0.7893    0.0000 C   0  0  0  0  0  0  0  0  0  0  0  0
   11.8311    0.6334    0.0000 N   0  0  0  0  0  0  0  0  0  0  0  0
   12.1012   -0.1461    0.0000 C   0  0  0  0  0  0  0  0  0  0  0  0
   12.9113   -0.3020    0.0000 C   0  0  0  0  0  0  0  0  0  0  0  0
   13.1814   -1.0816    0.0000 C   0  0  0  0  0  0  0  0  0  0  0  0
   13.9915   -1.2375    0.0000 Cl  0  0  0  0  0  0  0  0  0  0  0  0
   12.6413   -1.7052    0.0000 C   0  0  0  0  0  0  0  0  0  0  0  0
   11.8311   -1.5493    0.0000 C   0  0  0  0  0  0  0  0  0  0  0  0
   11.5611   -0.7698    0.0000 C   0  0  0  0  0  0  0  0  0  0  0  0
  1  2  1  0  0  0  0
  2  3  1  0  0  0  0
  3  4  1  0  0  0  0
  3  6  1  0  0  0  0
  4  5  1  0  0  0  0
  6  7  1  0  0  0  0
  7  8  1  0  0  0  0
  8  9  1  0  0  0  0
  9 10  1  0  0  0  0
  9 11  1  0  0  0  0
 11 12  1  0  0  0  0
 12 13  2  0  0  0  0
 12 23  1  0  0  0  0
 13 14  1  0  0  0  0
 13 15  1  0  0  0  0
 15 16  2  0  0  0  0
 16 17  1  0  0  0  0
 17 18  2  0  0  0  0
 17 23  1  0  0  0  0
 18 19  1  0  0  0  0
 19 20  1  0  0  0  0
 19 21  2  0  0  0  0
 21 22  1  0  0  0  0
 22 23  2  0  0  0  0
M  END
$$$$

 OpenBabel12191814062D

 32 34  0  0  0  0  0  0  0  0999 V2000
    2.4922    4.9598    0.0000 C   0  0  0  0  0  0  0  0  0  0  0  0
    3.3023    5.1157    0.0000 C   0  0  0  0  0  0  0  0  0  0  0  0
    3.8424    4.4921    0.0000 N   0  0  0  0  0  0  0  0  0  0  0  0
    3.5724    3.7125    0.0000 C   0  0  0  0  0  0  0  0  0  0  0  0
    2.7622    3.5566    0.0000 C   0  0  0  0  0  0  0  0  0  0  0  0
    4.6525    4.6480    0.0000 C   0  0  0  0  0  0  0  0  0  0  0  0
    5.1926    4.0243    0.0000 C   0  0  0  0  0  0  0  0  0  0  0  0
    6.0028    4.1802    0.0000 C   0  0  0  0  0  0  0  0  0  0  0  0
    6.5428    3.5566    0.0000 C   0  0  3  0  0  0  0  0  0  0  0  0
    6.2728    2.7770    0.0000 C   0  0  0  0  0  0  0  0  0  0  0  0
    7.3530    3.7125    0.0000 N   0  0  0  0  0  0  0  0  0  0  0  0
    7.8931    3.0889    0.0000 C   0  0  3  0  0  0  0  0  0  0  0  0
    8.7032    3.2448    0.0000 C   0  0  3  0  0  0  0  0  0  0  0  0
    8.9732    4.0243    0.0000 O   0  0  0  0  0  0  0  0  0  0  0  0
    9.2433    2.6211    0.0000 C   0  0  3  0  0  0  0  0  0  0  0  0
   10.0534    2.7770    0.0000 C   0  0  0  0  0  0  0  0  0  0  0  0
    8.9732    1.8416    0.0000 N   0  0  0  0  0  0  0  0  0  0  0  0
    9.5133    1.2179    0.0000 C   0  0  0  0  0  0  0  0  0  0  0  0
    9.2433    0.4384    0.0000 O   0  0  0  0  0  0  0  0  0  0  0  0
   10.3235    1.3738    0.0000 C   0  0  0  0  0  0  0  0  0  0  0  0
   10.5935    2.1534    0.0000 C   0  0  0  0  0  0  0  0  0  0  0  0
   11.4036    2.3093    0.0000 C   0  0  0  0  0  0  0  0  0  0  0  0
   11.9437    1.6857    0.0000 C   0  0  0  0  0  0  0  0  0  0  0  0
   12.7539    1.8416    0.0000 C   0  0  0  0  0  0  0  0  0  0  0  0
   11.6737    0.9061    0.0000 C   0  0  0  0  0  0  0  0  0  0  0  0
   10.8636    0.7502    0.0000 C   0  0  0  0  0  0  0  0  0  0  0  0
    8.1631    1.6857    0.0000 C   0  0  0  0  0  0  0  0  0  0  0  0
    7.8931    0.9061    0.0000 C   0  0  0  0  0  0  0  0  0  0  0  0
    7.0829    0.7502    0.0000 C   0  0  0  0  0  0  0  0  0  0  0  0
    6.5428    1.3738    0.0000 C   0  0  0  0  0  0  0  0  0  0  0  0
    6.8129    2.1534    0.0000 C   0  0  0  0  0  0  0  0  0  0  0  0
    7.6230    2.3093    0.0000 C   0  0  0  0  0  0  0  0  0  0  0  0
  1  2  1  0  0  0  0
  2  3  1  0  0  0  0
  3  4  1  0  0  0  0
  3  6  1  0  0  0  0
  4  5  1  0  0  0  0
  6  7  1  0  0  0  0
  7  8  1  0  0  0  0
  8  9  1  0  0  0  0
  9 10  1  0  0  0  0
  9 11  1  0  0  0  0
 11 12  1  0  0  0  0
 12 13  1  0  0  0  0
 12 32  1  0  0  0  0
 13 14  1  0  0  0  0
 13 15  1  0  0  0  0
 15 16  1  0  0  0  0
 15 17  1  0  0  0  0
 17 18  1  0  0  0  0
 17 27  1  0  0  0  0
 18 19  2  0  0  0  0
 18 20  1  0  0  0  0
 20 21  2  0  0  0  0
 20 26  1  0  0  0  0
 21 22  1  0  0  0  0
 22 23  2  0  0  0  0
 23 24  1  0  0  0  0
 23 25  1  0  0  0  0
 25 26  2  0  0  0  0
 27 28  2  0  0  0  0
 27 32  1  0  0  0  0
 28 29  1  0  0  0  0
 29 30  2  0  0  0  0
 30 31  1  0  0  0  0
 31 32  2  0  0  0  0
M  END
$$$$

 OpenBabel12191814062D

 32 34  0  0  0  0  0  0  0  0999 V2000
    2.4922    4.9598    0.0000 C   0  0  0  0  0  0  0  0  0  0  0  0
    3.3023    5.1157    0.0000 C   0  0  0  0  0  0  0  0  0  0  0  0
    3.8424    4.4921    0.0000 N   0  0  0  0  0  0  0  0  0  0  0  0
    3.5724    3.7125    0.0000 C   0  0  0  0  0  0  0  0  0  0  0  0
    2.7622    3.5566    0.0000 C   0  0  0  0  0  0  0  0  0  0  0  0
    4.6525    4.6480    0.0000 C   0  0  0  0  0  0  0  0  0  0  0  0
    5.1926    4.0243    0.0000 C   0  0  0  0  0  0  0  0  0  0  0  0
    6.0028    4.1802    0.0000 C   0  0  0  0  0  0  0  0  0  0  0  0
    6.5428    3.5566    0.0000 C   0  0  3  0  0  0  0  0  0  0  0  0
    6.2728    2.7770    0.0000 C   0  0  0  0  0  0  0  0  0  0  0  0
    7.3530    3.7125    0.0000 N   0  0  0  0  0  0  0  0  0  0  0  0
    7.8931    3.0889    0.0000 C   0  0  3  0  0  0  0  0  0  0  0  0
    8.7032    3.2448    0.0000 C   0  0  3  0  0  0  0  0  0  0  0  0
    8.9732    4.0243    0.0000 O   0  0  0  0  0  0  0  0  0  0  0  0
    9.7834    4.1802    0.0000 C   0  0  0  0  0  0  0  0  0  0  0  0
   10.3235    3.5566    0.0000 O   0  0  0  0  0  0  0  0  0  0  0  0
   10.0534    4.9598    0.0000 C   0  0  0  0  0  0  0  0  0  0  0  0
    9.5133    5.5834    0.0000 C   0  0  0  0  0  0  0  0  0  0  0  0
    9.7834    6.3630    0.0000 C   0  0  0  0  0  0  0  0  0  0  0  0
   10.5935    6.5189    0.0000 C   0  0  0  0  0  0  0  0  0  0  0  0
   10.8636    7.2984    0.0000 C   0  0  0  0  0  0  0  0  0  0  0  0
   11.1336    5.8952    0.0000 C   0  0  0  0  0  0  0  0  0  0  0  0
   10.8636    5.1157    0.0000 C   0  0  0  0  0  0  0  0  0  0  0  0
    9.2433    2.6211    0.0000 C   0  0  3  0  0  0  0  0  0  0  0  0
   10.0534    2.7770    0.0000 C   0  0  0  0  0  0  0  0  0  0  0  0
    8.9732    1.8416    0.0000 N   0  0  0  0  0  0  0  0  0  0  0  0
    8.1631    1.6857    0.0000 C   0  0  0  0  0  0  0  0  0  0  0  0
    7.8931    0.9061    0.0000 C   0  0  0  0  0  0  0  0  0  0  0  0
    7.0829    0.7502    0.0000 C   0  0  0  0  0  0  0  0  0  0  0  0
    6.5428    1.3738    0.0000 C   0  0  0  0  0  0  0  0  0  0  0  0
    6.8129    2.1534    0.0000 C   0  0  0  0  0  0  0  0  0  0  0  0
    7.6230    2.3093    0.0000 C   0  0  0  0  0  0  0  0  0  0  0  0
  1  2  1  0  0  0  0
  2  3  1  0  0  0  0
  3  4  1  0  0  0  0
  3  6  1  0  0  0  0
  4  5  1  0  0  0  0
  6  7  1  0  0  0  0
  7  8  1  0  0  0  0
  8  9  1  0  0  0  0
  9 10  1  0  0  0  0
  9 11  1  0  0  0  0
 11 12  1  0  0  0  0
 12 13  1  0  0  0  0
 12 32  1  0  0  0  0
 13 14  1  0  0  0  0
 13 24  1  0  0  0  0
 14 15  1  0  0  0  0
 15 16  2  0  0  0  0
 15 17  1  0  0  0  0
 17 18  2  0  0  0  0
 17 23  1  0  0  0  0
 18 19  1  0  0  0  0
 19 20  2  0  0  0  0
 20 21  1  0  0  0  0
 20 22  1  0  0  0  0
 22 23  2  0  0  0  0
 24 25  1  0  0  0  0
 24 26  1  0  0  0  0
 26 27  1  0  0  0  0
 27 28  2  0  0  0  0
 27 32  1  0  0  0  0
 28 29  1  0  0  0  0
 29 30  2  0  0  0  0
 30 31  1  0  0  0  0
 31 32  2  0  0  0  0
M  END
$$$$

 OpenBabel12191814062D

 28 30  0  0  0  0  0  0  0  0999 V2000
    2.4922    4.9598    0.0000 C   0  0  0  0  0  0  0  0  0  0  0  0
    3.3023    5.1157    0.0000 C   0  0  0  0  0  0  0  0  0  0  0  0
    3.8424    4.4921    0.0000 N   0  0  0  0  0  0  0  0  0  0  0  0
    3.5724    3.7125    0.0000 C   0  0  0  0  0  0  0  0  0  0  0  0
    2.7622    3.5566    0.0000 C   0  0  0  0  0  0  0  0  0  0  0  0
    4.6525    4.6480    0.0000 C   0  0  0  0  0  0  0  0  0  0  0  0
    5.1926    4.0243    0.0000 C   0  0  0  0  0  0  0  0  0  0  0  0
    6.0028    4.1802    0.0000 C   0  0  0  0  0  0  0  0  0  0  0  0
    6.5428    3.5566    0.0000 C   0  0  3  0  0  0  0  0  0  0  0  0
    6.2728    2.7770    0.0000 C   0  0  0  0  0  0  0  0  0  0  0  0
    7.3530    3.7125    0.0000 N   0  0  0  0  0  0  0  0  0  0  0  0
    7.8931    3.0889    0.0000 C   0  0  0  0  0  0  0  0  0  0  0  0
    8.7032    3.2448    0.0000 C   0  0  0  0  0  0  0  0  0  0  0  0
    8.9732    4.0243    0.0000 C   0  0  0  0  0  0  0  0  0  0  0  0
    9.7834    4.1802    0.0000 C   0  0  0  0  0  0  0  0  0  0  0  0
   10.3235    3.5566    0.0000 C   0  0  0  0  0  0  0  0  0  0  0  0
   11.1336    3.7125    0.0000 Cl  0  0  0  0  0  0  0  0  0  0  0  0
   10.0534    2.7770    0.0000 C   0  0  0  0  0  0  0  0  0  0  0  0
    9.2433    2.6211    0.0000 C   0  0  0  0  0  0  0  0  0  0  0  0
    8.9732    1.8416    0.0000 N   0  0  0  0  0  0  0  0  0  0  0  0
    8.1631    1.6857    0.0000 C   0  0  0  0  0  0  0  0  0  0  0  0
    7.8931    0.9061    0.0000 C   0  0  0  0  0  0  0  0  0  0  0  0
    7.0829    0.7502    0.0000 C   0  0  0  0  0  0  0  0  0  0  0  0
    6.5428    1.3738    0.0000 C   0  0  0  0  0  0  0  0  0  0  0  0
    5.7327    1.2179    0.0000 O   0  0  0  0  0  0  0  0  0  0  0  0
    5.1926    1.8416    0.0000 C   0  0  0  0  0  0  0  0  0  0  0  0
    6.8129    2.1534    0.0000 C   0  0  0  0  0  0  0  0  0  0  0  0
    7.6230    2.3093    0.0000 C   0  0  0  0  0  0  0  0  0  0  0  0
  1  2  1  0  0  0  0
  2  3  1  0  0  0  0
  3  4  1  0  0  0  0
  3  6  1  0  0  0  0
  4  5  1  0  0  0  0
  6  7  1  0  0  0  0
  7  8  1  0  0  0  0
  8  9  1  0  0  0  0
  9 10  1  0  0  0  0
  9 11  1  0  0  0  0
 11 12  1  0  0  0  0
 12 13  2  0  0  0  0
 12 28  1  0  0  0  0
 13 14  1  0  0  0  0
 13 19  1  0  0  0  0
 14 15  2  0  0  0  0
 15 16  1  0  0  0  0
 16 17  1  0  0  0  0
 16 18  2  0  0  0  0
 18 19  1  0  0  0  0
 19 20  2  0  0  0  0
 20 21  1  0  0  0  0
 21 22  2  0  0  0  0
 21 28  1  0  0  0  0
 22 23  1  0  0  0  0
 23 24  2  0  0  0  0
 24 25  1  0  0  0  0
 24 27  1  0  0  0  0
 25 26  1  0  0  0  0
 27 28  2  0  0  0  0
M  END
$$$$

 OpenBabel12191814062D

 28 28  0  0  0  0  0  0  0  0999 V2000
   -7.8592   -1.2375    0.0000 C   0  0  0  0  0  0  0  0  0  0  0  0
   -7.1447   -1.6500    0.0000 C   0  0  0  0  0  0  0  0  0  0  0  0
   -6.4302   -1.2375    0.0000 N   0  0  0  0  0  0  0  0  0  0  0  0
   -6.4302   -0.4125    0.0000 C   0  0  0  0  0  0  0  0  0  0  0  0
   -5.7158   -0.0000    0.0000 C   0  0  0  0  0  0  0  0  0  0  0  0
   -5.7158   -1.6500    0.0000 C   0  0  0  0  0  0  0  0  0  0  0  0
   -5.0013   -1.2375    0.0000 C   0  0  0  0  0  0  0  0  0  0  0  0
   -4.2868   -1.6500    0.0000 C   0  0  0  0  0  0  0  0  0  0  0  0
   -3.5724   -1.2375    0.0000 C   0  0  0  0  0  0  0  0  0  0  0  0
   -2.8579   -1.6500    0.0000 C   0  0  0  0  0  0  0  0  0  0  0  0
   -2.1434   -1.2375    0.0000 C   0  0  0  0  0  0  0  0  0  0  0  0
   -1.4289   -1.6500    0.0000 C   0  0  0  0  0  0  0  0  0  0  0  0
   -0.7145   -1.2375    0.0000 C   0  0  0  0  0  0  0  0  0  0  0  0
    0.0000   -1.6500    0.0000 O   0  0  0  0  0  0  0  0  0  0  0  0
    0.7145   -1.2375    0.0000 C   0  0  0  0  0  0  0  0  0  0  0  0
    1.4289   -1.6500    0.0000 O   0  0  0  0  0  0  0  0  0  0  0  0
    0.7145   -0.4125    0.0000 C   0  0  0  0  0  0  0  0  0  0  0  0
    0.0000   -0.0000    0.0000 C   0  0  0  0  0  0  0  0  0  0  0  0
    0.0000    0.8250    0.0000 C   0  0  0  0  0  0  0  0  0  0  0  0
   -0.7145    1.2375    0.0000 O   0  0  0  0  0  0  0  0  0  0  0  0
   -0.7145    2.0625    0.0000 C   0  0  0  0  0  0  0  0  0  0  0  0
    0.7145    1.2375    0.0000 C   0  0  0  0  0  0  0  0  0  0  0  0
    0.7145    2.0625    0.0000 O   0  0  0  0  0  0  0  0  0  0  0  0
    0.0000    2.4750    0.0000 C   0  0  0  0  0  0  0  0  0  0  0  0
    1.4289    0.8250    0.0000 C   0  0  0  0  0  0  0  0  0  0  0  0
    2.1434    1.2375    0.0000 O   0  0  0  0  0  0  0  0  0  0  0  0
    2.8579    0.8250    0.0000 C   0  0  0  0  0  0  0  0  0  0  0  0
    1.4289   -0.0000    0.0000 C   0  0  0  0  0  0  0  0  0  0  0  0
  1  2  1  0  0  0  0
  2  3  1  0  0  0  0
  3  4  1  0  0  0  0
  3  6  1  0  0  0  0
  4  5  1  0  0  0  0
  6  7  1  0  0  0  0
  7  8  1  0  0  0  0
  8  9  1  0  0  0  0
  9 10  1  0  0  0  0
 10 11  1  0  0  0  0
 11 12  1  0  0  0  0
 12 13  1  0  0  0  0
 13 14  1  0  0  0  0
 14 15  1  0  0  0  0
 15 16  2  0  0  0  0
 15 17  1  0  0  0  0
 17 18  2  0  0  0  0
 17 28  1  0  0  0  0
 18 19  1  0  0  0  0
 19 20  1  0  0  0  0
 19 22  2  0  0  0  0
 20 21  1  0  0  0  0
 22 23  1  0  0  0  0
 22 25  1  0  0  0  0
 23 24  1  0  0  0  0
 25 26  1  0  0  0  0
 25 28  2  0  0  0  0
 26 27  1  0  0  0  0
M  END
$$$$

 OpenBabel12191814062D

 24 26  0  0  0  0  0  0  0  0999 V2000
    3.1650   -3.4491    0.0000 C   0  0  0  0  0  0  0  0  0  0  0  0
    3.8795   -3.8616    0.0000 C   0  0  0  0  0  0  0  0  0  0  0  0
    4.5940   -3.4491    0.0000 N   0  0  0  0  0  0  0  0  0  0  0  0
    4.5940   -2.6241    0.0000 C   0  0  0  0  0  0  0  0  0  0  0  0
    5.3084   -2.2116    0.0000 C   0  0  0  0  0  0  0  0  0  0  0  0
    5.3084   -3.8616    0.0000 C   0  0  0  0  0  0  0  0  0  0  0  0
    6.0229   -3.4491    0.0000 C   0  0  0  0  0  0  0  0  0  0  0  0
    6.7374   -3.8616    0.0000 C   0  0  0  0  0  0  0  0  0  0  0  0
    7.4519   -3.4491    0.0000 N   0  0  0  0  0  0  0  0  0  0  0  0
    8.1663   -3.8616    0.0000 C   0  0  0  0  0  0  0  0  0  0  0  0
    8.9200   -3.5261    0.0000 C   0  0  0  0  0  0  0  0  0  0  0  0
    9.4720   -4.1392    0.0000 C   0  0  0  0  0  0  0  0  0  0  0  0
   10.2970   -4.1392    0.0000 C   0  0  0  0  0  0  0  0  0  0  0  0
   10.7095   -4.8536    0.0000 C   0  0  0  0  0  0  0  0  0  0  0  0
   10.2970   -5.5681    0.0000 C   0  0  0  0  0  0  0  0  0  0  0  0
    9.4720   -5.5681    0.0000 C   0  0  0  0  0  0  0  0  0  0  0  0
    9.0595   -4.8536    0.0000 C   0  0  0  0  0  0  0  0  0  0  0  0
    8.2526   -4.6821    0.0000 C   0  0  0  0  0  0  0  0  0  0  0  0
    7.4519   -2.6241    0.0000 C   0  0  0  0  0  0  0  0  0  0  0  0
    6.7374   -2.2116    0.0000 C   0  0  0  0  0  0  0  0  0  0  0  0
    6.7374   -1.3866    0.0000 C   0  0  0  0  0  0  0  0  0  0  0  0
    7.4519   -0.9741    0.0000 C   0  0  0  0  0  0  0  0  0  0  0  0
    8.1663   -1.3866    0.0000 C   0  0  0  0  0  0  0  0  0  0  0  0
    8.1663   -2.2116    0.0000 C   0  0  0  0  0  0  0  0  0  0  0  0
  1  2  1  0  0  0  0
  2  3  1  0  0  0  0
  3  4  1  0  0  0  0
  3  6  1  0  0  0  0
  4  5  1  0  0  0  0
  6  7  1  0  0  0  0
  7  8  1  0  0  0  0
  8  9  1  0  0  0  0
  9 10  1  0  0  0  0
  9 19  1  0  0  0  0
 10 11  1  0  0  0  0
 10 18  1  0  0  0  0
 11 12  1  0  0  0  0
 12 13  2  0  0  0  0
 12 17  1  0  0  0  0
 13 14  1  0  0  0  0
 14 15  2  0  0  0  0
 15 16  1  0  0  0  0
 16 17  2  0  0  0  0
 17 18  1  0  0  0  0
 19 20  2  0  0  0  0
 19 24  1  0  0  0  0
 20 21  1  0  0  0  0
 21 22  2  0  0  0  0
 22 23  1  0  0  0  0
 23 24  2  0  0  0  0
M  END
$$$$

 OpenBabel12191814062D

 26 28  0  0  0  0  0  0  0  0999 V2000
    3.1650   -3.4491    0.0000 C   0  0  0  0  0  0  0  0  0  0  0  0
    3.8795   -3.8616    0.0000 C   0  0  0  0  0  0  0  0  0  0  0  0
    4.5940   -3.4491    0.0000 N   0  0  0  0  0  0  0  0  0  0  0  0
    4.5940   -2.6241    0.0000 C   0  0  0  0  0  0  0  0  0  0  0  0
    5.3084   -2.2116    0.0000 C   0  0  0  0  0  0  0  0  0  0  0  0
    5.3084   -3.8616    0.0000 C   0  0  0  0  0  0  0  0  0  0  0  0
    6.0229   -3.4491    0.0000 C   0  0  0  0  0  0  0  0  0  0  0  0
    6.7374   -3.8616    0.0000 C   0  0  0  0  0  0  0  0  0  0  0  0
    7.4519   -3.4491    0.0000 N   0  0  0  0  0  0  0  0  0  0  0  0
    8.1663   -3.8616    0.0000 C   0  0  3  0  0  0  0  0  0  0  0  0
    8.9200   -3.5261    0.0000 C   0  0  0  0  0  0  0  0  0  0  0  0
    9.4720   -4.1392    0.0000 C   0  0  0  0  0  0  0  0  0  0  0  0
   10.2970   -4.1392    0.0000 C   0  0  0  0  0  0  0  0  0  0  0  0
   10.7095   -4.8536    0.0000 C   0  0  0  0  0  0  0  0  0  0  0  0
   10.2970   -5.5681    0.0000 C   0  0  0  0  0  0  0  0  0  0  0  0
    9.4720   -5.5681    0.0000 C   0  0  0  0  0  0  0  0  0  0  0  0
    9.0595   -4.8536    0.0000 C   0  0  0  0  0  0  0  0  0  0  0  0
    8.2526   -4.6821    0.0000 C   0  0  3  0  0  0  0  0  0  0  0  0
    7.6395   -5.2341    0.0000 O   0  0  0  0  0  0  0  0  0  0  0  0
    6.8549   -4.9792    0.0000 C   0  0  0  0  0  0  0  0  0  0  0  0
    7.4519   -2.6241    0.0000 C   0  0  0  0  0  0  0  0  0  0  0  0
    6.7374   -2.2116    0.0000 C   0  0  0  0  0  0  0  0  0  0  0  0
    6.7374   -1.3866    0.0000 C   0  0  0  0  0  0  0  0  0  0  0  0
    7.4519   -0.9741    0.0000 C   0  0  0  0  0  0  0  0  0  0  0  0
    8.1663   -1.3866    0.0000 C   0  0  0  0  0  0  0  0  0  0  0  0
    8.1663   -2.2116    0.0000 C   0  0  0  0  0  0  0  0  0  0  0  0
  1  2  1  0  0  0  0
  2  3  1  0  0  0  0
  3  4  1  0  0  0  0
  3  6  1  0  0  0  0
  4  5  1  0  0  0  0
  6  7  1  0  0  0  0
  7  8  1  0  0  0  0
  8  9  1  0  0  0  0
  9 10  1  0  0  0  0
  9 21  1  0  0  0  0
 10 11  1  0  0  0  0
 10 18  1  0  0  0  0
 11 12  1  0  0  0  0
 12 13  2  0  0  0  0
 12 17  1  0  0  0  0
 13 14  1  0  0  0  0
 14 15  2  0  0  0  0
 15 16  1  0  0  0  0
 16 17  2  0  0  0  0
 17 18  1  0  0  0  0
 18 19  1  0  0  0  0
 19 20  1  0  0  0  0
 21 22  2  0  0  0  0
 21 26  1  0  0  0  0
 22 23  1  0  0  0  0
 23 24  2  0  0  0  0
 24 25  1  0  0  0  0
 25 26  2  0  0  0  0
M  END
$$$$

 OpenBabel12191814062D

 22 24  0  0  0  0  0  0  0  0999 V2000
    2.0329    3.9039    0.0000 C   0  0  0  0  0  0  0  0  0  0  0  0
    2.8579    3.9039    0.0000 C   0  0  0  0  0  0  0  0  0  0  0  0
    3.2704    3.1895    0.0000 N   0  0  0  0  0  0  0  0  0  0  0  0
    2.8579    2.4750    0.0000 C   0  0  0  0  0  0  0  0  0  0  0  0
    2.0329    2.4750    0.0000 C   0  0  0  0  0  0  0  0  0  0  0  0
    4.0954    3.1895    0.0000 C   0  0  0  0  0  0  0  0  0  0  0  0
    4.5079    2.4750    0.0000 C   0  0  0  0  0  0  0  0  0  0  0  0
    5.3329    2.4750    0.0000 C   0  0  0  0  0  0  0  0  0  0  0  0
    5.7454    1.7605    0.0000 N   0  0  0  0  0  0  0  0  0  0  0  0
    6.5704    1.7605    0.0000 C   0  0  0  0  0  0  0  0  0  0  0  0
    6.9829    2.4750    0.0000 C   0  0  0  0  0  0  0  0  0  0  0  0
    7.8079    2.4750    0.0000 C   0  0  0  0  0  0  0  0  0  0  0  0
    8.2204    1.7605    0.0000 C   0  0  0  0  0  0  0  0  0  0  0  0
    7.8079    1.0461    0.0000 C   0  0  0  0  0  0  0  0  0  0  0  0
    6.9829    1.0461    0.0000 C   0  0  0  0  0  0  0  0  0  0  0  0
    6.5704    0.3316    0.0000 O   0  0  0  0  0  0  0  0  0  0  0  0
    5.7454    0.3316    0.0000 C   0  0  0  0  0  0  0  0  0  0  0  0
    5.3329   -0.3829    0.0000 C   0  0  0  0  0  0  0  0  0  0  0  0
    4.5079   -0.3829    0.0000 C   0  0  0  0  0  0  0  0  0  0  0  0
    4.0954    0.3316    0.0000 C   0  0  0  0  0  0  0  0  0  0  0  0
    4.5079    1.0461    0.0000 C   0  0  0  0  0  0  0  0  0  0  0  0
    5.3329    1.0461    0.0000 C   0  0  0  0  0  0  0  0  0  0  0  0
  1  2  1  0  0  0  0
  2  3  1  0  0  0  0
  3  4  1  0  0  0  0
  3  6  1  0  0  0  0
  4  5  1  0  0  0  0
  6  7  1  0  0  0  0
  7  8  1  0  0  0  0
  8  9  1  0  0  0  0
  9 10  1  0  0  0  0
  9 22  1  0  0  0  0
 10 11  2  0  0  0  0
 10 15  1  0  0  0  0
 11 12  1  0  0  0  0
 12 13  2  0  0  0  0
 13 14  1  0  0  0  0
 14 15  2  0  0  0  0
 15 16  1  0  0  0  0
 16 17  1  0  0  0  0
 17 18  2  0  0  0  0
 17 22  1  0  0  0  0
 18 19  1  0  0  0  0
 19 20  2  0  0  0  0
 20 21  1  0  0  0  0
 21 22  2  0  0  0  0
M  END
$$$$

 OpenBabel12191814062D

 23 25  0  0  0  0  0  0  0  0999 V2000
    2.0329    3.9039    0.0000 C   0  0  0  0  0  0  0  0  0  0  0  0
    2.8579    3.9039    0.0000 C   0  0  0  0  0  0  0  0  0  0  0  0
    3.2704    3.1895    0.0000 N   0  0  0  0  0  0  0  0  0  0  0  0
    2.8579    2.4750    0.0000 C   0  0  0  0  0  0  0  0  0  0  0  0
    2.0329    2.4750    0.0000 C   0  0  0  0  0  0  0  0  0  0  0  0
    4.0954    3.1895    0.0000 C   0  0  0  0  0  0  0  0  0  0  0  0
    4.5079    2.4750    0.0000 C   0  0  0  0  0  0  0  0  0  0  0  0
    5.3329    2.4750    0.0000 C   0  0  0  0  0  0  0  0  0  0  0  0
    5.7454    1.7605    0.0000 N   0  0  0  0  0  0  0  0  0  0  0  0
    6.5704    1.7605    0.0000 C   0  0  0  0  0  0  0  0  0  0  0  0
    6.9829    2.4750    0.0000 C   0  0  0  0  0  0  0  0  0  0  0  0
    7.8079    2.4750    0.0000 C   0  0  0  0  0  0  0  0  0  0  0  0
    8.2204    1.7605    0.0000 C   0  0  0  0  0  0  0  0  0  0  0  0
    7.8079    1.0461    0.0000 C   0  0  0  0  0  0  0  0  0  0  0  0
    6.9829    1.0461    0.0000 C   0  0  0  0  0  0  0  0  0  0  0  0
    6.5704    0.3316    0.0000 S   0  0  0  0  0  0  0  0  0  0  0  0
    5.7454    0.3316    0.0000 C   0  0  0  0  0  0  0  0  0  0  0  0
    5.3329   -0.3829    0.0000 C   0  0  0  0  0  0  0  0  0  0  0  0
    4.5079   -0.3829    0.0000 C   0  0  0  0  0  0  0  0  0  0  0  0
    4.0954    0.3316    0.0000 C   0  0  0  0  0  0  0  0  0  0  0  0
    3.2704    0.3316    0.0000 Cl  0  0  0  0  0  0  0  0  0  0  0  0
    4.5079    1.0461    0.0000 C   0  0  0  0  0  0  0  0  0  0  0  0
    5.3329    1.0461    0.0000 C   0  0  0  0  0  0  0  0  0  0  0  0
  1  2  1  0  0  0  0
  2  3  1  0  0  0  0
  3  4  1  0  0  0  0
  3  6  1  0  0  0  0
  4  5  1  0  0  0  0
  6  7  1  0  0  0  0
  7  8  1  0  0  0  0
  8  9  1  0  0  0  0
  9 10  1  0  0  0  0
  9 23  1  0  0  0  0
 10 11  2  0  0  0  0
 10 15  1  0  0  0  0
 11 12  1  0  0  0  0
 12 13  2  0  0  0  0
 13 14  1  0  0  0  0
 14 15  2  0  0  0  0
 15 16  1  0  0  0  0
 16 17  1  0  0  0  0
 17 18  2  0  0  0  0
 17 23  1  0  0  0  0
 18 19  1  0  0  0  0
 19 20  2  0  0  0  0
 20 21  1  0  0  0  0
 20 22  1  0  0  0  0
 22 23  2  0  0  0  0
M  END
$$$$

 OpenBabel12191814062D

 27 29  0  0  0  0  0  0  0  0999 V2000
    2.1434    1.2375    0.0000 C   0  0  0  0  0  0  0  0  0  0  0  0
    2.8579    0.8250    0.0000 C   0  0  0  0  0  0  0  0  0  0  0  0
    3.5724    1.2375    0.0000 N   0  0  0  0  0  0  0  0  0  0  0  0
    3.5724    2.0625    0.0000 C   0  0  0  0  0  0  0  0  0  0  0  0
    4.2868    2.4750    0.0000 C   0  0  0  0  0  0  0  0  0  0  0  0
    4.2868    0.8250    0.0000 C   0  0  0  0  0  0  0  0  0  0  0  0
    5.0013    1.2375    0.0000 C   0  0  0  0  0  0  0  0  0  0  0  0
    5.7158    0.8250    0.0000 N   0  0  0  0  0  0  0  0  0  0  0  0
    6.4302    1.2375    0.0000 C   0  0  0  0  0  0  0  0  0  0  0  0
    6.4302    2.0625    0.0000 O   0  0  0  0  0  0  0  0  0  0  0  0
    7.1447    0.8250    0.0000 C   0  0  0  0  0  0  0  0  0  0  0  0
    7.8592    1.2375    0.0000 C   0  0  0  0  0  0  0  0  0  0  0  0
    8.5737    0.8250    0.0000 C   0  0  0  0  0  0  0  0  0  0  0  0
    9.2881    1.2375    0.0000 C   0  0  0  0  0  0  0  0  0  0  0  0
   10.0026    0.8250    0.0000 C   0  0  0  0  0  0  0  0  0  0  0  0
   10.0026    0.0000    0.0000 C   0  0  0  0  0  0  0  0  0  0  0  0
   10.7171   -0.4125    0.0000 O   0  0  0  0  0  0  0  0  0  0  0  0
   11.4315    0.0000    0.0000 C   0  0  0  0  0  0  0  0  0  0  0  0
    9.2881   -0.4125    0.0000 C   0  0  0  0  0  0  0  0  0  0  0  0
    8.5737    0.0000    0.0000 C   0  0  0  0  0  0  0  0  0  0  0  0
    7.1447    0.0000    0.0000 N   0  0  0  0  0  0  0  0  0  0  0  0
    6.4302   -0.4125    0.0000 C   0  0  0  0  0  0  0  0  0  0  0  0
    6.4302   -1.2375    0.0000 C   0  0  0  0  0  0  0  0  0  0  0  0
    5.7158   -1.6500    0.0000 C   0  0  0  0  0  0  0  0  0  0  0  0
    5.0013   -1.2375    0.0000 C   0  0  0  0  0  0  0  0  0  0  0  0
    5.0013   -0.4125    0.0000 C   0  0  0  0  0  0  0  0  0  0  0  0
    5.7158    0.0000    0.0000 C   0  0  0  0  0  0  0  0  0  0  0  0
  1  2  1  0  0  0  0
  2  3  1  0  0  0  0
  3  4  1  0  0  0  0
  3  6  1  0  0  0  0
  4  5  1  0  0  0  0
  6  7  1  0  0  0  0
  7  8  1  0  0  0  0
  8  9  1  0  0  0  0
  8 27  1  0  0  0  0
  9 10  2  0  0  0  0
  9 11  1  0  0  0  0
 11 12  1  0  0  0  0
 11 21  2  0  0  0  0
 12 13  1  0  0  0  0
 13 14  2  0  0  0  0
 13 20  1  0  0  0  0
 14 15  1  0  0  0  0
 15 16  2  0  0  0  0
 16 17  1  0  0  0  0
 16 19  1  0  0  0  0
 17 18  1  0  0  0  0
 19 20  2  0  0  0  0
 21 22  1  0  0  0  0
 22 23  2  0  0  0  0
 22 27  1  0  0  0  0
 23 24  1  0  0  0  0
 24 25  2  0  0  0  0
 25 26  1  0  0  0  0
 26 27  2  0  0  0  0
M  END
$$$$

 OpenBabel12191814062D

 27 29  0  0  0  0  0  0  0  0999 V2000
   -0.5463   -2.6842    0.0000 C   0  0  0  0  0  0  0  0  0  0  0  0
    0.1681   -3.0967    0.0000 C   0  0  0  0  0  0  0  0  0  0  0  0
    0.8826   -2.6842    0.0000 N   0  0  0  0  0  0  0  0  0  0  0  0
    0.8826   -1.8592    0.0000 C   0  0  0  0  0  0  0  0  0  0  0  0
    1.5971   -1.4467    0.0000 C   0  0  0  0  0  0  0  0  0  0  0  0
    1.5971   -3.0967    0.0000 C   0  0  0  0  0  0  0  0  0  0  0  0
    2.3116   -2.6842    0.0000 C   0  0  0  0  0  0  0  0  0  0  0  0
    3.0260   -3.0967    0.0000 N   0  0  0  0  0  0  0  0  0  0  0  0
    3.7077   -2.6319    0.0000 C   0  0  0  0  0  0  0  0  0  0  0  0
    3.5241   -1.8276    0.0000 C   0  0  0  0  0  0  0  0  0  0  0  0
    4.1289   -1.2665    0.0000 C   0  0  0  0  0  0  0  0  0  0  0  0
    4.9172   -1.5096    0.0000 C   0  0  0  0  0  0  0  0  0  0  0  0
    5.5220   -0.9485    0.0000 Cl  0  0  0  0  0  0  0  0  0  0  0  0
    5.1008   -2.3139    0.0000 C   0  0  0  0  0  0  0  0  0  0  0  0
    4.4960   -2.8751    0.0000 C   0  0  0  0  0  0  0  0  0  0  0  0
    4.7974   -3.6431    0.0000 C   0  0  0  0  0  0  0  0  0  0  0  0
    4.3849   -4.3575    0.0000 N   0  0  0  0  0  0  0  0  0  0  0  0
    3.5691   -4.4805    0.0000 C   0  0  0  0  0  0  0  0  0  0  0  0
    2.9644   -3.9193    0.0000 C   0  0  0  0  0  0  0  0  0  0  0  0
    2.1964   -4.2208    0.0000 O   0  0  0  0  0  0  0  0  0  0  0  0
    5.6201   -3.7047    0.0000 C   0  0  0  0  0  0  0  0  0  0  0  0
    6.0849   -3.0231    0.0000 C   0  0  0  0  0  0  0  0  0  0  0  0
    6.9076   -3.0847    0.0000 C   0  0  0  0  0  0  0  0  0  0  0  0
    7.2655   -3.8280    0.0000 C   0  0  0  0  0  0  0  0  0  0  0  0
    6.8008   -4.5097    0.0000 C   0  0  0  0  0  0  0  0  0  0  0  0
    5.9781   -4.4480    0.0000 C   0  0  0  0  0  0  0  0  0  0  0  0
    5.5133   -5.1297    0.0000 F   0  0  0  0  0  0  0  0  0  0  0  0
  1  2  1  0  0  0  0
  2  3  1  0  0  0  0
  3  4  1  0  0  0  0
  3  6  1  0  0  0  0
  4  5  1  0  0  0  0
  6  7  1  0  0  0  0
  7  8  1  0  0  0  0
  8  9  1  0  0  0  0
  8 19  1  0  0  0  0
  9 10  2  0  0  0  0
  9 15  1  0  0  0  0
 10 11  1  0  0  0  0
 11 12  2  0  0  0  0
 12 13  1  0  0  0  0
 12 14  1  0  0  0  0
 14 15  2  0  0  0  0
 15 16  1  0  0  0  0
 16 17  2  0  0  0  0
 16 21  1  0  0  0  0
 17 18  1  0  0  0  0
 18 19  1  0  0  0  0
 19 20  2  0  0  0  0
 21 22  2  0  0  0  0
 21 26  1  0  0  0  0
 22 23  1  0  0  0  0
 23 24  2  0  0  0  0
 24 25  1  0  0  0  0
 25 26  2  0  0  0  0
 26 27  1  0  0  0  0
M  END
$$$$

 OpenBabel12191814062D

 22 22  0  0  0  0  0  0  0  0999 V2000
   -3.5724   -1.2375    0.0000 C   0  0  0  0  0  0  0  0  0  0  0  0
   -2.8579   -1.6500    0.0000 C   0  0  0  0  0  0  0  0  0  0  0  0
   -2.1434   -1.2375    0.0000 N   0  0  0  0  0  0  0  0  0  0  0  0
   -2.1434   -0.4125    0.0000 C   0  0  0  0  0  0  0  0  0  0  0  0
   -2.8579   -0.0000    0.0000 C   0  0  0  0  0  0  0  0  0  0  0  0
   -1.4289   -1.6500    0.0000 C   0  0  0  0  0  0  0  0  0  0  0  0
   -0.7145   -1.2375    0.0000 C   0  0  0  0  0  0  0  0  0  0  0  0
    0.0000   -1.6500    0.0000 N   0  0  0  0  0  0  0  0  0  0  0  0
    0.7145   -1.2375    0.0000 C   0  0  0  0  0  0  0  0  0  0  0  0
    1.4289   -1.6500    0.0000 O   0  0  0  0  0  0  0  0  0  0  0  0
    0.7145   -0.4125    0.0000 C   0  0  0  0  0  0  0  0  0  0  0  0
    0.0000   -0.0000    0.0000 C   0  0  0  0  0  0  0  0  0  0  0  0
    0.0000    0.8250    0.0000 C   0  0  0  0  0  0  0  0  0  0  0  0
    0.7145    1.2375    0.0000 C   0  0  0  0  0  0  0  0  0  0  0  0
    1.4289    0.8250    0.0000 C   0  0  0  0  0  0  0  0  0  0  0  0
    1.4289   -0.0000    0.0000 C   0  0  0  0  0  0  0  0  0  0  0  0
    2.1434   -0.4125    0.0000 O   0  0  0  0  0  0  0  0  0  0  0  0
    2.1434   -1.2375    0.0000 C   0  0  0  0  0  0  0  0  0  0  0  0
   -0.7145    1.2375    0.0000 S   0  0  0  0  0  0  0  0  0  0  0  0
   -1.4289    1.6500    0.0000 C   0  0  0  0  0  0  0  0  0  0  0  0
   -0.3020    1.9520    0.0000 O   0  0  0  0  0  0  0  0  0  0  0  0
   -1.1270    0.5230    0.0000 O   0  0  0  0  0  0  0  0  0  0  0  0
  1  2  1  0  0  0  0
  2  3  1  0  0  0  0
  3  4  1  0  0  0  0
  3  6  1  0  0  0  0
  4  5  1  0  0  0  0
  6  7  1  0  0  0  0
  7  8  1  0  0  0  0
  8  9  1  0  0  0  0
  9 10  2  0  0  0  0
  9 11  1  0  0  0  0
 11 12  2  0  0  0  0
 11 16  1  0  0  0  0
 12 13  1  0  0  0  0
 13 14  2  0  0  0  0
 13 19  1  0  0  0  0
 14 15  1  0  0  0  0
 15 16  2  0  0  0  0
 16 17  1  0  0  0  0
 17 18  1  0  0  0  0
 19 20  1  0  0  0  0
 19 21  2  0  0  0  0
 19 22  2  0  0  0  0
M  END
$$$$

 OpenBabel12191814062D

 40 43  0  0  0  0  0  0  0  0999 V2000
    0.0000   -6.6000    0.0000 C   0  0  0  0  0  0  0  0  0  0  0  0
    0.7145   -7.0125    0.0000 C   0  0  0  0  0  0  0  0  0  0  0  0
    1.4289   -6.6000    0.0000 N   0  0  0  0  0  0  0  0  0  0  0  0
    1.4289   -5.7750    0.0000 C   0  0  0  0  0  0  0  0  0  0  0  0
    2.1434   -5.3625    0.0000 C   0  0  0  0  0  0  0  0  0  0  0  0
    2.1434   -7.0125    0.0000 C   0  0  0  0  0  0  0  0  0  0  0  0
    2.8579   -6.6000    0.0000 C   0  0  0  0  0  0  0  0  0  0  0  0
    3.5724   -7.0125    0.0000 O   0  0  0  0  0  0  0  0  0  0  0  0
    4.2868   -6.6000    0.0000 C   0  0  0  0  0  0  0  0  0  0  0  0
    5.0013   -7.0125    0.0000 O   0  0  0  0  0  0  0  0  0  0  0  0
    4.2868   -5.7750    0.0000 C   0  0  0  0  0  0  0  0  0  0  0  0
    3.5724   -5.3625    0.0000 C   0  0  0  0  0  0  0  0  0  0  0  0
    3.5724   -4.5375    0.0000 C   0  0  0  0  0  0  0  0  0  0  0  0
    2.8579   -4.1250    0.0000 O   0  0  0  0  0  0  0  0  0  0  0  0
    2.1434   -4.5375    0.0000 C   0  0  0  0  0  0  0  0  0  0  0  0
    1.4289   -4.1250    0.0000 C   0  0  0  0  0  0  0  0  0  0  0  0
    0.7145   -4.5375    0.0000 C   0  0  0  0  0  0  0  0  0  0  0  0
    0.0000   -4.1250    0.0000 C   0  0  0  0  0  0  0  0  0  0  0  0
    0.0000   -3.3000    0.0000 C   0  0  0  0  0  0  0  0  0  0  0  0
    0.7145   -2.8875    0.0000 C   0  0  0  0  0  0  0  0  0  0  0  0
    1.4289   -3.3000    0.0000 C   0  0  0  0  0  0  0  0  0  0  0  0
    4.2868   -4.1250    0.0000 C   0  0  0  0  0  0  0  0  0  0  0  0
    4.2868   -3.3000    0.0000 O   0  0  0  0  0  0  0  0  0  0  0  0
    3.5724   -2.8875    0.0000 C   0  0  0  0  0  0  0  0  0  0  0  0
    3.5724   -2.0625    0.0000 C   0  0  0  0  0  0  0  0  0  0  0  0
    2.8579   -1.6500    0.0000 C   0  0  0  0  0  0  0  0  0  0  0  0
    2.8579   -0.8250    0.0000 C   0  0  0  0  0  0  0  0  0  0  0  0
    3.5724   -0.4125    0.0000 C   0  0  0  0  0  0  0  0  0  0  0  0
    4.2868   -0.8250    0.0000 C   0  0  0  0  0  0  0  0  0  0  0  0
    4.2868   -1.6500    0.0000 C   0  0  0  0  0  0  0  0  0  0  0  0
    5.0013   -4.5375    0.0000 C   0  0  0  0  0  0  0  0  0  0  0  0
    5.7158   -4.1250    0.0000 O   0  0  0  0  0  0  0  0  0  0  0  0
    5.7158   -3.3000    0.0000 C   0  0  0  0  0  0  0  0  0  0  0  0
    6.4302   -2.8875    0.0000 C   0  0  0  0  0  0  0  0  0  0  0  0
    6.4302   -2.0625    0.0000 C   0  0  0  0  0  0  0  0  0  0  0  0
    7.1447   -1.6500    0.0000 C   0  0  0  0  0  0  0  0  0  0  0  0
    7.8592   -2.0625    0.0000 C   0  0  0  0  0  0  0  0  0  0  0  0
    7.8592   -2.8875    0.0000 C   0  0  0  0  0  0  0  0  0  0  0  0
    7.1447   -3.3000    0.0000 C   0  0  0  0  0  0  0  0  0  0  0  0
    5.0013   -5.3625    0.0000 C   0  0  0  0  0  0  0  0  0  0  0  0
  1  2  1  0  0  0  0
  2  3  1  0  0  0  0
  3  4  1  0  0  0  0
  3  6  1  0  0  0  0
  4  5  1  0  0  0  0
  6  7  1  0  0  0  0
  7  8  1  0  0  0  0
  8  9  1  0  0  0  0
  9 10  2  0  0  0  0
  9 11  1  0  0  0  0
 11 12  2  0  0  0  0
 11 40  1  0  0  0  0
 12 13  1  0  0  0  0
 13 14  1  0  0  0  0
 13 22  2  0  0  0  0
 14 15  1  0  0  0  0
 15 16  1  0  0  0  0
 16 17  2  0  0  0  0
 16 21  1  0  0  0  0
 17 18  1  0  0  0  0
 18 19  2  0  0  0  0
 19 20  1  0  0  0  0
 20 21  2  0  0  0  0
 22 23  1  0  0  0  0
 22 31  1  0  0  0  0
 23 24  1  0  0  0  0
 24 25  1  0  0  0  0
 25 26  2  0  0  0  0
 25 30  1  0  0  0  0
 26 27  1  0  0  0  0
 27 28  2  0  0  0  0
 28 29  1  0  0  0  0
 29 30  2  0  0  0  0
 31 32  1  0  0  0  0
 31 40  2  0  0  0  0
 32 33  1  0  0  0  0
 33 34  1  0  0  0  0
 34 35  2  0  0  0  0
 34 39  1  0  0  0  0
 35 36  1  0  0  0  0
 36 37  2  0  0  0  0
 37 38  1  0  0  0  0
 38 39  2  0  0  0  0
M  END
$$$$

 OpenBabel12191814062D

 32 34  0  0  0  0  0  0  0  0999 V2000
   -2.9684   -3.9336    0.0000 C   0  0  0  0  0  0  0  0  0  0  0  0
   -2.1434   -3.9336    0.0000 C   0  0  0  0  0  0  0  0  0  0  0  0
   -1.7309   -4.6480    0.0000 N   0  0  0  0  0  0  0  0  0  0  0  0
   -2.1434   -5.3625    0.0000 C   0  0  0  0  0  0  0  0  0  0  0  0
   -2.9684   -5.3625    0.0000 C   0  0  0  0  0  0  0  0  0  0  0  0
   -0.9059   -4.6480    0.0000 C   0  0  0  0  0  0  0  0  0  0  0  0
   -0.4934   -5.3625    0.0000 C   0  0  0  0  0  0  0  0  0  0  0  0
    0.3316   -5.3625    0.0000 O   0  0  0  0  0  0  0  0  0  0  0  0
    0.7441   -6.0770    0.0000 C   0  0  0  0  0  0  0  0  0  0  0  0
    1.5691   -6.0770    0.0000 C   0  0  0  0  0  0  0  0  0  0  0  0
    1.9816   -6.7914    0.0000 C   0  0  0  0  0  0  0  0  0  0  0  0
    1.5691   -7.5059    0.0000 C   0  0  0  0  0  0  0  0  0  0  0  0
    0.7441   -7.5059    0.0000 C   0  0  0  0  0  0  0  0  0  0  0  0
    0.3316   -6.7914    0.0000 C   0  0  0  0  0  0  0  0  0  0  0  0
    1.9816   -8.2204    0.0000 C   0  0  0  0  0  0  0  0  0  0  0  0
    1.5691   -8.9349    0.0000 C   0  0  0  0  0  0  0  0  0  0  0  0
    0.7441   -8.9349    0.0000 C   0  0  0  0  0  0  0  0  0  0  0  0
    0.3316   -9.6493    0.0000 C   0  0  0  0  0  0  0  0  0  0  0  0
   -0.4934   -9.6493    0.0000 C   0  0  0  0  0  0  0  0  0  0  0  0
   -0.9059   -8.9349    0.0000 C   0  0  0  0  0  0  0  0  0  0  0  0
   -0.4934   -8.2204    0.0000 C   0  0  0  0  0  0  0  0  0  0  0  0
    0.3316   -8.2204    0.0000 C   0  0  0  0  0  0  0  0  0  0  0  0
   -1.7309   -8.9349    0.0000 C   0  0  0  0  0  0  0  0  0  0  0  0
   -2.5559   -8.9349    0.0000 C   0  0  0  0  0  0  0  0  0  0  0  0
   -1.7309   -8.1099    0.0000 C   0  0  0  0  0  0  0  0  0  0  0  0
   -1.7309   -9.7599    0.0000 C   0  0  0  0  0  0  0  0  0  0  0  0
    2.8066   -8.2204    0.0000 C   0  0  0  0  0  0  0  0  0  0  0  0
    3.2191   -7.5059    0.0000 C   0  0  0  0  0  0  0  0  0  0  0  0
    4.0441   -7.5059    0.0000 C   0  0  0  0  0  0  0  0  0  0  0  0
    4.4566   -8.2204    0.0000 C   0  0  0  0  0  0  0  0  0  0  0  0
    4.0441   -8.9349    0.0000 C   0  0  0  0  0  0  0  0  0  0  0  0
    3.2191   -8.9349    0.0000 C   0  0  0  0  0  0  0  0  0  0  0  0
  1  2  1  0  0  0  0
  2  3  1  0  0  0  0
  3  4  1  0  0  0  0
  3  6  1  0  0  0  0
  4  5  1  0  0  0  0
  6  7  1  0  0  0  0
  7  8  1  0  0  0  0
  8  9  1  0  0  0  0
  9 10  2  0  0  0  0
  9 14  1  0  0  0  0
 10 11  1  0  0  0  0
 11 12  2  0  0  0  0
 12 13  1  0  0  0  0
 12 15  1  0  0  0  0
 13 14  2  0  0  0  0
 15 16  2  0  0  0  0
 15 27  1  0  0  0  0
 16 17  1  0  0  0  0
 17 18  2  0  0  0  0
 17 22  1  0  0  0  0
 18 19  1  0  0  0  0
 19 20  2  0  0  0  0
 20 21  1  0  0  0  0
 20 23  1  0  0  0  0
 21 22  2  0  0  0  0
 23 24  1  0  0  0  0
 23 25  1  0  0  0  0
 23 26  1  0  0  0  0
 27 28  2  0  0  0  0
 27 32  1  0  0  0  0
 28 29  1  0  0  0  0
 29 30  2  0  0  0  0
 30 31  1  0  0  0  0
 31 32  2  0  0  0  0
M  END
$$$$

 OpenBabel12191814062D

 30 32  0  0  0  0  0  0  0  0999 V2000
    4.8908   -0.2211    0.0000 C   0  0  0  0  0  0  0  0  0  0  0  0
    5.7158   -0.2211    0.0000 C   0  0  0  0  0  0  0  0  0  0  0  0
    6.1283   -0.9355    0.0000 N   0  0  0  0  0  0  0  0  0  0  0  0
    5.7158   -1.6500    0.0000 C   0  0  0  0  0  0  0  0  0  0  0  0
    4.8908   -1.6500    0.0000 C   0  0  0  0  0  0  0  0  0  0  0  0
    6.9533   -0.9355    0.0000 C   0  0  0  0  0  0  0  0  0  0  0  0
    7.3658   -1.6500    0.0000 C   0  0  0  0  0  0  0  0  0  0  0  0
    8.1908   -1.6500    0.0000 O   0  0  0  0  0  0  0  0  0  0  0  0
    8.6033   -2.3645    0.0000 C   0  0  0  0  0  0  0  0  0  0  0  0
    9.4283   -2.3645    0.0000 C   0  0  0  0  0  0  0  0  0  0  0  0
    9.8408   -3.0789    0.0000 C   0  0  0  0  0  0  0  0  0  0  0  0
    9.4283   -3.7934    0.0000 C   0  0  0  0  0  0  0  0  0  0  0  0
    8.6033   -3.7934    0.0000 C   0  0  0  0  0  0  0  0  0  0  0  0
    8.1908   -3.0789    0.0000 C   0  0  0  0  0  0  0  0  0  0  0  0
    9.8408   -4.5079    0.0000 C   0  0  3  0  0  0  0  0  0  0  0  0
   10.6658   -4.5079    0.0000 C   0  0  0  0  0  0  0  0  0  0  0  0
   11.0783   -5.2224    0.0000 C   0  0  0  0  0  0  0  0  0  0  0  0
   11.9033   -5.2224    0.0000 C   0  0  0  0  0  0  0  0  0  0  0  0
   12.3158   -5.9368    0.0000 C   0  0  0  0  0  0  0  0  0  0  0  0
   11.9033   -6.6513    0.0000 C   0  0  0  0  0  0  0  0  0  0  0  0
   12.3158   -7.3658    0.0000 O   0  0  0  0  0  0  0  0  0  0  0  0
   13.1408   -7.3658    0.0000 C   0  0  0  0  0  0  0  0  0  0  0  0
   11.0783   -6.6513    0.0000 C   0  0  0  0  0  0  0  0  0  0  0  0
   10.6658   -5.9368    0.0000 C   0  0  0  0  0  0  0  0  0  0  0  0
    9.4283   -5.2224    0.0000 C   0  0  0  0  0  0  0  0  0  0  0  0
    9.8408   -5.9368    0.0000 C   0  0  0  0  0  0  0  0  0  0  0  0
    9.4283   -6.6513    0.0000 C   0  0  0  0  0  0  0  0  0  0  0  0
    8.6033   -6.6513    0.0000 C   0  0  0  0  0  0  0  0  0  0  0  0
    8.1908   -5.9368    0.0000 C   0  0  0  0  0  0  0  0  0  0  0  0
    8.6033   -5.2224    0.0000 C   0  0  0  0  0  0  0  0  0  0  0  0
  1  2  1  0  0  0  0
  2  3  1  0  0  0  0
  3  4  1  0  0  0  0
  3  6  1  0  0  0  0
  4  5  1  0  0  0  0
  6  7  1  0  0  0  0
  7  8  1  0  0  0  0
  8  9  1  0  0  0  0
  9 10  2  0  0  0  0
  9 14  1  0  0  0  0
 10 11  1  0  0  0  0
 11 12  2  0  0  0  0
 12 13  1  0  0  0  0
 12 15  1  0  0  0  0
 13 14  2  0  0  0  0
 15 16  1  0  0  0  0
 15 25  1  0  0  0  0
 16 17  1  0  0  0  0
 17 18  2  0  0  0  0
 17 24  1  0  0  0  0
 18 19  1  0  0  0  0
 19 20  2  0  0  0  0
 20 21  1  0  0  0  0
 20 23  1  0  0  0  0
 21 22  1  0  0  0  0
 23 24  2  0  0  0  0
 25 26  2  0  0  0  0
 25 30  1  0  0  0  0
 26 27  1  0  0  0  0
 27 28  2  0  0  0  0
 28 29  1  0  0  0  0
 29 30  2  0  0  0  0
M  END
$$$$

 OpenBabel12191814062D

 31 33  0  0  0  0  0  0  0  0999 V2000
   -4.6480   -1.9520    0.0000 C   0  0  0  0  0  0  0  0  0  0  0  0
   -3.8230   -1.9520    0.0000 C   0  0  0  0  0  0  0  0  0  0  0  0
   -3.4105   -2.6664    0.0000 N   0  0  0  0  0  0  0  0  0  0  0  0
   -3.8230   -3.3809    0.0000 C   0  0  0  0  0  0  0  0  0  0  0  0
   -4.6480   -3.3809    0.0000 C   0  0  0  0  0  0  0  0  0  0  0  0
   -2.5855   -2.6664    0.0000 C   0  0  0  0  0  0  0  0  0  0  0  0
   -2.1730   -3.3809    0.0000 C   0  0  0  0  0  0  0  0  0  0  0  0
   -1.3480   -3.3809    0.0000 O   0  0  0  0  0  0  0  0  0  0  0  0
   -0.9355   -4.0954    0.0000 C   0  0  0  0  0  0  0  0  0  0  0  0
   -0.1105   -4.0954    0.0000 C   0  0  0  0  0  0  0  0  0  0  0  0
    0.3020   -4.8099    0.0000 C   0  0  0  0  0  0  0  0  0  0  0  0
   -0.1105   -5.5243    0.0000 C   0  0  0  0  0  0  0  0  0  0  0  0
   -0.9355   -5.5243    0.0000 C   0  0  0  0  0  0  0  0  0  0  0  0
   -1.3480   -4.8099    0.0000 C   0  0  0  0  0  0  0  0  0  0  0  0
    0.3020   -6.2388    0.0000 C   0  0  3  0  0  0  0  0  0  0  0  0
   -0.4125   -6.6513    0.0000 O   0  0  0  0  0  0  0  0  0  0  0  0
    0.7145   -6.9533    0.0000 C   0  0  0  0  0  0  0  0  0  0  0  0
    0.3020   -7.6677    0.0000 C   0  0  0  0  0  0  0  0  0  0  0  0
    0.7145   -8.3822    0.0000 C   0  0  0  0  0  0  0  0  0  0  0  0
    0.3020   -9.0967    0.0000 C   0  0  0  0  0  0  0  0  0  0  0  0
   -0.5230   -9.0967    0.0000 C   0  0  0  0  0  0  0  0  0  0  0  0
   -0.9355   -9.8112    0.0000 Cl  0  0  0  0  0  0  0  0  0  0  0  0
   -0.9355   -8.3822    0.0000 C   0  0  0  0  0  0  0  0  0  0  0  0
   -0.5230   -7.6677    0.0000 C   0  0  0  0  0  0  0  0  0  0  0  0
    1.0164   -5.8263    0.0000 C   0  0  0  0  0  0  0  0  0  0  0  0
    1.0164   -5.0013    0.0000 C   0  0  0  0  0  0  0  0  0  0  0  0
    1.7309   -4.5888    0.0000 C   0  0  0  0  0  0  0  0  0  0  0  0
    2.4454   -5.0013    0.0000 C   0  0  0  0  0  0  0  0  0  0  0  0
    3.1599   -4.5888    0.0000 C   0  0  0  0  0  0  0  0  0  0  0  0
    2.4454   -5.8263    0.0000 C   0  0  0  0  0  0  0  0  0  0  0  0
    1.7309   -6.2388    0.0000 C   0  0  0  0  0  0  0  0  0  0  0  0
  1  2  1  0  0  0  0
  2  3  1  0  0  0  0
  3  4  1  0  0  0  0
  3  6  1  0  0  0  0
  4  5  1  0  0  0  0
  6  7  1  0  0  0  0
  7  8  1  0  0  0  0
  8  9  1  0  0  0  0
  9 10  2  0  0  0  0
  9 14  1  0  0  0  0
 10 11  1  0  0  0  0
 11 12  2  0  0  0  0
 12 13  1  0  0  0  0
 12 15  1  0  0  0  0
 13 14  2  0  0  0  0
 15 16  1  0  0  0  0
 15 17  1  0  0  0  0
 15 25  1  0  0  0  0
 17 18  1  0  0  0  0
 18 19  2  0  0  0  0
 18 24  1  0  0  0  0
 19 20  1  0  0  0  0
 20 21  2  0  0  0  0
 21 22  1  0  0  0  0
 21 23  1  0  0  0  0
 23 24  2  0  0  0  0
 25 26  2  0  0  0  0
 25 31  1  0  0  0  0
 26 27  1  0  0  0  0
 27 28  2  0  0  0  0
 28 29  1  0  0  0  0
 28 30  1  0  0  0  0
 30 31  2  0  0  0  0
M  END
$$$$

 OpenBabel12191814062D

 32 35  0  0  0  0  0  0  0  0999 V2000
    4.1763    5.1414    0.0000 C   0  0  0  0  0  0  0  0  0  0  0  0
    5.0013    5.1414    0.0000 C   0  0  0  0  0  0  0  0  0  0  0  0
    5.4138    4.4270    0.0000 N   0  0  0  0  0  0  0  0  0  0  0  0
    5.0013    3.7125    0.0000 C   0  0  0  0  0  0  0  0  0  0  0  0
    4.1763    3.7125    0.0000 C   0  0  0  0  0  0  0  0  0  0  0  0
    6.2388    4.4270    0.0000 C   0  0  0  0  0  0  0  0  0  0  0  0
    6.6513    3.7125    0.0000 C   0  0  0  0  0  0  0  0  0  0  0  0
    7.4763    3.7125    0.0000 O   0  0  0  0  0  0  0  0  0  0  0  0
    7.8888    2.9980    0.0000 C   0  0  0  0  0  0  0  0  0  0  0  0
    8.7138    2.9980    0.0000 C   0  0  0  0  0  0  0  0  0  0  0  0
    9.1263    2.2836    0.0000 C   0  0  0  0  0  0  0  0  0  0  0  0
    8.7138    1.5691    0.0000 C   0  0  0  0  0  0  0  0  0  0  0  0
    7.8888    1.5691    0.0000 C   0  0  0  0  0  0  0  0  0  0  0  0
    7.4763    2.2836    0.0000 C   0  0  0  0  0  0  0  0  0  0  0  0
    9.1263    0.8546    0.0000 C   0  0  0  0  0  0  0  0  0  0  0  0
    9.9513    0.8546    0.0000 C   0  0  0  0  0  0  0  0  0  0  0  0
   10.3638    0.1401    0.0000 C   0  0  0  0  0  0  0  0  0  0  0  0
    9.9513   -0.5743    0.0000 C   0  0  0  0  0  0  0  0  0  0  0  0
    9.1263   -0.5743    0.0000 C   0  0  0  0  0  0  0  0  0  0  0  0
    8.7138   -1.2888    0.0000 C   0  0  0  0  0  0  0  0  0  0  0  0
    7.8888   -1.2888    0.0000 C   0  0  0  0  0  0  0  0  0  0  0  0
    7.4763   -2.0033    0.0000 O   0  0  0  0  0  0  0  0  0  0  0  0
    7.8888   -2.7177    0.0000 C   0  0  0  0  0  0  0  0  0  0  0  0
    7.4763   -0.5743    0.0000 C   0  0  0  0  0  0  0  0  0  0  0  0
    7.8888    0.1401    0.0000 C   0  0  0  0  0  0  0  0  0  0  0  0
    8.7138    0.1401    0.0000 C   0  0  0  0  0  0  0  0  0  0  0  0
   10.3638    1.5691    0.0000 C   0  0  0  0  0  0  0  0  0  0  0  0
    9.9513    2.2836    0.0000 C   0  0  0  0  0  0  0  0  0  0  0  0
   10.3638    2.9980    0.0000 C   0  0  0  0  0  0  0  0  0  0  0  0
   11.1888    2.9980    0.0000 C   0  0  0  0  0  0  0  0  0  0  0  0
   11.6013    2.2836    0.0000 C   0  0  0  0  0  0  0  0  0  0  0  0
   11.1888    1.5691    0.0000 C   0  0  0  0  0  0  0  0  0  0  0  0
  1  2  1  0  0  0  0
  2  3  1  0  0  0  0
  3  4  1  0  0  0  0
  3  6  1  0  0  0  0
  4  5  1  0  0  0  0
  6  7  1  0  0  0  0
  7  8  1  0  0  0  0
  8  9  1  0  0  0  0
  9 10  2  0  0  0  0
  9 14  1  0  0  0  0
 10 11  1  0  0  0  0
 11 12  2  0  0  0  0
 12 13  1  0  0  0  0
 12 15  1  0  0  0  0
 13 14  2  0  0  0  0
 15 16  2  0  0  0  0
 15 26  1  0  0  0  0
 16 17  1  0  0  0  0
 16 27  1  0  0  0  0
 17 18  1  0  0  0  0
 18 19  1  0  0  0  0
 19 20  2  0  0  0  0
 19 26  1  0  0  0  0
 20 21  1  0  0  0  0
 21 22  1  0  0  0  0
 21 24  2  0  0  0  0
 22 23  1  0  0  0  0
 24 25  1  0  0  0  0
 25 26  2  0  0  0  0
 27 28  2  0  0  0  0
 27 32  1  0  0  0  0
 28 29  1  0  0  0  0
 29 30  2  0  0  0  0
 30 31  1  0  0  0  0
 31 32  2  0  0  0  0
M  END
$$$$

 OpenBabel12191814062D

 33 36  0  0  0  0  0  0  0  0999 V2000
    4.1763    5.1414    0.0000 C   0  0  0  0  0  0  0  0  0  0  0  0
    5.0013    5.1414    0.0000 C   0  0  0  0  0  0  0  0  0  0  0  0
    5.4138    4.4270    0.0000 N   0  0  0  0  0  0  0  0  0  0  0  0
    5.0013    3.7125    0.0000 C   0  0  0  0  0  0  0  0  0  0  0  0
    4.1763    3.7125    0.0000 C   0  0  0  0  0  0  0  0  0  0  0  0
    6.2388    4.4270    0.0000 C   0  0  0  0  0  0  0  0  0  0  0  0
    6.6513    3.7125    0.0000 C   0  0  0  0  0  0  0  0  0  0  0  0
    7.4763    3.7125    0.0000 O   0  0  0  0  0  0  0  0  0  0  0  0
    7.8888    2.9980    0.0000 C   0  0  0  0  0  0  0  0  0  0  0  0
    8.7138    2.9980    0.0000 C   0  0  0  0  0  0  0  0  0  0  0  0
    9.1263    2.2836    0.0000 C   0  0  0  0  0  0  0  0  0  0  0  0
    8.7138    1.5691    0.0000 C   0  0  0  0  0  0  0  0  0  0  0  0
    7.8888    1.5691    0.0000 C   0  0  0  0  0  0  0  0  0  0  0  0
    7.4763    2.2836    0.0000 C   0  0  0  0  0  0  0  0  0  0  0  0
    9.1263    0.8546    0.0000 C   0  0  3  0  0  0  0  0  0  0  0  0
    9.9513    0.8546    0.0000 C   0  0  3  0  0  0  0  0  0  0  0  0
   10.3638    0.1401    0.0000 C   0  0  0  0  0  0  0  0  0  0  0  0
   11.1888    0.1401    0.0000 O   0  0  0  0  0  0  0  0  0  0  0  0
    9.9513   -0.5743    0.0000 O   0  0  0  0  0  0  0  0  0  0  0  0
    9.1263   -0.5743    0.0000 C   0  0  0  0  0  0  0  0  0  0  0  0
    8.7138   -1.2888    0.0000 C   0  0  0  0  0  0  0  0  0  0  0  0
    7.8888   -1.2888    0.0000 C   0  0  0  0  0  0  0  0  0  0  0  0
    7.4763   -0.5743    0.0000 C   0  0  0  0  0  0  0  0  0  0  0  0
    7.8888    0.1401    0.0000 C   0  0  0  0  0  0  0  0  0  0  0  0
    8.7138    0.1401    0.0000 C   0  0  0  0  0  0  0  0  0  0  0  0
   10.3638    1.5691    0.0000 C   0  0  0  0  0  0  0  0  0  0  0  0
    9.9513    2.2836    0.0000 C   0  0  0  0  0  0  0  0  0  0  0  0
   10.3638    2.9980    0.0000 C   0  0  0  0  0  0  0  0  0  0  0  0
   11.1888    2.9980    0.0000 C   0  0  0  0  0  0  0  0  0  0  0  0
   11.6013    3.7125    0.0000 O   0  0  0  0  0  0  0  0  0  0  0  0
   12.4263    3.7125    0.0000 C   0  0  0  0  0  0  0  0  0  0  0  0
   11.6013    2.2836    0.0000 C   0  0  0  0  0  0  0  0  0  0  0  0
   11.1888    1.5691    0.0000 C   0  0  0  0  0  0  0  0  0  0  0  0
  1  2  1  0  0  0  0
  2  3  1  0  0  0  0
  3  4  1  0  0  0  0
  3  6  1  0  0  0  0
  4  5  1  0  0  0  0
  6  7  1  0  0  0  0
  7  8  1  0  0  0  0
  8  9  1  0  0  0  0
  9 10  2  0  0  0  0
  9 14  1  0  0  0  0
 10 11  1  0  0  0  0
 11 12  2  0  0  0  0
 12 13  1  0  0  0  0
 12 15  1  0  0  0  0
 13 14  2  0  0  0  0
 15 16  1  0  0  0  0
 15 25  1  0  0  0  0
 16 17  1  0  0  0  0
 16 26  1  0  0  0  0
 17 18  2  0  0  0  0
 17 19  1  0  0  0  0
 19 20  1  0  0  0  0
 20 21  2  0  0  0  0
 20 25  1  0  0  0  0
 21 22  1  0  0  0  0
 22 23  2  0  0  0  0
 23 24  1  0  0  0  0
 24 25  2  0  0  0  0
 26 27  2  0  0  0  0
 26 33  1  0  0  0  0
 27 28  1  0  0  0  0
 28 29  2  0  0  0  0
 29 30  1  0  0  0  0
 29 32  1  0  0  0  0
 30 31  1  0  0  0  0
 32 33  2  0  0  0  0
M  END
$$$$

 OpenBabel12191814062D

 28 31  0  0  0  0  0  0  0  0999 V2000
    2.0329   -3.5211    0.0000 C   0  0  0  0  0  0  0  0  0  0  0  0
    2.8579   -3.5211    0.0000 C   0  0  0  0  0  0  0  0  0  0  0  0
    3.2704   -4.2355    0.0000 N   0  0  0  0  0  0  0  0  0  0  0  0
    2.8579   -4.9500    0.0000 C   0  0  0  0  0  0  0  0  0  0  0  0
    2.0329   -4.9500    0.0000 C   0  0  0  0  0  0  0  0  0  0  0  0
    4.0954   -4.2355    0.0000 C   0  0  0  0  0  0  0  0  0  0  0  0
    4.5079   -4.9500    0.0000 C   0  0  0  0  0  0  0  0  0  0  0  0
    5.3329   -4.9500    0.0000 O   0  0  0  0  0  0  0  0  0  0  0  0
    5.7454   -5.6645    0.0000 C   0  0  3  0  0  0  0  0  0  0  0  0
    6.5704   -5.6645    0.0000 C   0  0  0  0  0  0  0  0  0  0  0  0
    6.9829   -6.3789    0.0000 C   0  0  0  0  0  0  0  0  0  0  0  0
    6.5704   -7.0934    0.0000 C   0  0  3  0  0  0  0  0  0  0  0  0
    7.3954   -7.0934    0.0000 C   0  0  0  0  0  0  0  0  0  0  0  0
    6.9829   -7.8079    0.0000 C   0  0  3  0  0  0  0  0  0  0  0  0
    7.8079   -7.8079    0.0000 C   0  0  0  0  0  0  0  0  0  0  0  0
    8.2204   -8.5224    0.0000 C   0  0  0  0  0  0  0  0  0  0  0  0
    7.8079   -9.2368    0.0000 C   0  0  3  0  0  0  0  0  0  0  0  0
    8.6284   -9.3231    0.0000 C   0  0  0  0  0  0  0  0  0  0  0  0
    6.9829   -9.2368    0.0000 C   0  0  3  0  0  0  0  0  0  0  0  0
    6.7279  -10.0214    0.0000 C   0  0  0  0  0  0  0  0  0  0  0  0
    7.3954  -10.5064    0.0000 C   0  0  0  0  0  0  0  0  0  0  0  0
    8.0628  -10.0214    0.0000 C   0  0  0  0  0  0  0  0  0  0  0  0
    8.8474  -10.2764    0.0000 O   0  0  0  0  0  0  0  0  0  0  0  0
    6.5704   -8.5224    0.0000 C   0  0  3  0  0  0  0  0  0  0  0  0
    5.7454   -8.5224    0.0000 C   0  0  0  0  0  0  0  0  0  0  0  0
    5.3329   -7.8079    0.0000 C   0  0  0  0  0  0  0  0  0  0  0  0
    5.7454   -7.0934    0.0000 C   0  0  0  0  0  0  0  0  0  0  0  0
    5.3329   -6.3789    0.0000 C   0  0  0  0  0  0  0  0  0  0  0  0
  1  2  1  0  0  0  0
  2  3  1  0  0  0  0
  3  4  1  0  0  0  0
  3  6  1  0  0  0  0
  4  5  1  0  0  0  0
  6  7  1  0  0  0  0
  7  8  1  0  0  0  0
  8  9  1  0  0  0  0
  9 10  1  0  0  0  0
  9 28  1  0  0  0  0
 10 11  1  0  0  0  0
 11 12  1  0  0  0  0
 12 13  1  0  0  0  0
 12 14  1  0  0  0  0
 12 27  1  0  0  0  0
 14 15  1  0  0  0  0
 14 24  1  0  0  0  0
 15 16  1  0  0  0  0
 16 17  1  0  0  0  0
 17 18  1  0  0  0  0
 17 19  1  0  0  0  0
 17 22  1  0  0  0  0
 19 20  1  0  0  0  0
 19 24  1  0  0  0  0
 20 21  1  0  0  0  0
 21 22  1  0  0  0  0
 22 23  2  0  0  0  0
 24 25  1  0  0  0  0
 25 26  1  0  0  0  0
 26 27  2  0  0  0  0
 27 28  1  0  0  0  0
M  END
$$$$

 OpenBabel12191814062D

 24 25  0  0  0  0  0  0  0  0999 V2000
   -1.5395   -6.7914    0.0000 C   0  0  0  0  0  0  0  0  0  0  0  0
   -0.7145   -6.7914    0.0000 C   0  0  0  0  0  0  0  0  0  0  0  0
   -0.3020   -6.0770    0.0000 N   0  0  0  0  0  0  0  0  0  0  0  0
   -0.7145   -5.3625    0.0000 C   0  0  0  0  0  0  0  0  0  0  0  0
   -0.3020   -4.6480    0.0000 C   0  0  0  0  0  0  0  0  0  0  0  0
    0.5230   -6.0770    0.0000 C   0  0  0  0  0  0  0  0  0  0  0  0
    0.9355   -5.3625    0.0000 C   0  0  0  0  0  0  0  0  0  0  0  0
    1.7605   -5.3625    0.0000 O   0  0  0  0  0  0  0  0  0  0  0  0
    2.1730   -4.6480    0.0000 C   0  0  0  0  0  0  0  0  0  0  0  0
    1.7605   -3.9336    0.0000 C   0  0  0  0  0  0  0  0  0  0  0  0
    2.1730   -3.2191    0.0000 C   0  0  0  0  0  0  0  0  0  0  0  0
    2.9980   -3.2191    0.0000 C   0  0  0  0  0  0  0  0  0  0  0  0
    3.4105   -3.9336    0.0000 C   0  0  0  0  0  0  0  0  0  0  0  0
    2.9980   -4.6480    0.0000 C   0  0  0  0  0  0  0  0  0  0  0  0
    3.4105   -5.3625    0.0000 C   0  0  0  0  0  0  0  0  0  0  0  0
    4.2355   -5.3625    0.0000 O   0  0  0  0  0  0  0  0  0  0  0  0
    2.9980   -6.0770    0.0000 C   0  0  0  0  0  0  0  0  0  0  0  0
    3.4105   -6.7914    0.0000 C   0  0  0  0  0  0  0  0  0  0  0  0
    4.2355   -6.7914    0.0000 C   0  0  0  0  0  0  0  0  0  0  0  0
    4.6480   -6.0770    0.0000 C   0  0  0  0  0  0  0  0  0  0  0  0
    5.4730   -6.0770    0.0000 C   0  0  0  0  0  0  0  0  0  0  0  0
    5.8855   -6.7914    0.0000 C   0  0  0  0  0  0  0  0  0  0  0  0
    5.4730   -7.5059    0.0000 C   0  0  0  0  0  0  0  0  0  0  0  0
    4.6480   -7.5059    0.0000 C   0  0  0  0  0  0  0  0  0  0  0  0
  1  2  1  0  0  0  0
  2  3  1  0  0  0  0
  3  4  1  0  0  0  0
  3  6  1  0  0  0  0
  4  5  1  0  0  0  0
  6  7  1  0  0  0  0
  7  8  1  0  0  0  0
  8  9  1  0  0  0  0
  9 10  2  0  0  0  0
  9 14  1  0  0  0  0
 10 11  1  0  0  0  0
 11 12  2  0  0  0  0
 12 13  1  0  0  0  0
 13 14  2  0  0  0  0
 14 15  1  0  0  0  0
 15 16  2  0  0  0  0
 15 17  1  0  0  0  0
 17 18  1  0  0  0  0
 18 19  1  0  0  0  0
 19 20  2  0  0  0  0
 19 24  1  0  0  0  0
 20 21  1  0  0  0  0
 21 22  2  0  0  0  0
 22 23  1  0  0  0  0
 23 24  2  0  0  0  0
M  END
$$$$

 OpenBabel12191814062D

 25 26  0  0  0  0  0  0  0  0999 V2000
    6.4302   -3.7125    0.0000 C   0  0  0  0  0  0  0  0  0  0  0  0
    5.7158   -4.1250    0.0000 C   0  0  0  0  0  0  0  0  0  0  0  0
    5.7158   -4.9500    0.0000 N   0  0  0  0  0  0  0  0  0  0  0  0
    5.0013   -5.3625    0.0000 C   0  0  0  0  0  0  0  0  0  0  0  0
    4.2868   -4.9500    0.0000 C   0  0  0  0  0  0  0  0  0  0  0  0
    3.5724   -5.3625    0.0000 C   0  0  0  0  0  0  0  0  0  0  0  0
    2.8579   -4.9500    0.0000 C   0  0  0  0  0  0  0  0  0  0  0  0
    2.8579   -4.1250    0.0000 O   0  0  0  0  0  0  0  0  0  0  0  0
    2.1434   -5.3625    0.0000 C   0  0  0  0  0  0  0  0  0  0  0  0
    2.1434   -6.1875    0.0000 C   0  0  0  0  0  0  0  0  0  0  0  0
    1.4289   -6.6000    0.0000 C   0  0  0  0  0  0  0  0  0  0  0  0
    0.7145   -6.1875    0.0000 C   0  0  0  0  0  0  0  0  0  0  0  0
    0.7145   -5.3625    0.0000 C   0  0  0  0  0  0  0  0  0  0  0  0
    1.4289   -4.9500    0.0000 C   0  0  0  0  0  0  0  0  0  0  0  0
    6.4302   -5.3625    0.0000 C   0  0  3  0  0  0  0  0  0  0  0  0
    6.4302   -6.1875    0.0000 C   0  0  0  0  0  0  0  0  0  0  0  0
    7.1447   -4.9500    0.0000 C   0  0  0  0  0  0  0  0  0  0  0  0
    7.8592   -5.3625    0.0000 C   0  0  0  0  0  0  0  0  0  0  0  0
    8.5737   -4.9500    0.0000 C   0  0  0  0  0  0  0  0  0  0  0  0
    9.2881   -5.3625    0.0000 C   0  0  0  0  0  0  0  0  0  0  0  0
    9.2881   -6.1875    0.0000 C   0  0  0  0  0  0  0  0  0  0  0  0
   10.0026   -6.6000    0.0000 O   0  0  0  0  0  0  0  0  0  0  0  0
   10.7171   -6.1875    0.0000 C   0  0  0  0  0  0  0  0  0  0  0  0
    8.5737   -6.6000    0.0000 C   0  0  0  0  0  0  0  0  0  0  0  0
    7.8592   -6.1875    0.0000 C   0  0  0  0  0  0  0  0  0  0  0  0
  1  2  1  0  0  0  0
  2  3  1  0  0  0  0
  3  4  1  0  0  0  0
  3 15  1  0  0  0  0
  4  5  1  0  0  0  0
  5  6  1  0  0  0  0
  6  7  1  0  0  0  0
  7  8  2  0  0  0  0
  7  9  1  0  0  0  0
  9 10  1  0  0  0  0
  9 14  1  0  0  0  0
 10 11  1  0  0  0  0
 11 12  1  0  0  0  0
 12 13  1  0  0  0  0
 13 14  1  0  0  0  0
 15 16  1  0  0  0  0
 15 17  1  0  0  0  0
 17 18  1  0  0  0  0
 18 19  2  0  0  0  0
 18 25  1  0  0  0  0
 19 20  1  0  0  0  0
 20 21  2  0  0  0  0
 21 22  1  0  0  0  0
 21 24  1  0  0  0  0
 22 23  1  0  0  0  0
 24 25  2  0  0  0  0
M  END
$$$$

 OpenBabel12191814062D

 34 38  0  0  0  0  0  0  0  0999 V2000
    0.0000   -2.4750    0.0000 C   0  0  0  0  0  0  0  0  0  0  0  0
    0.7145   -2.8875    0.0000 C   0  0  0  0  0  0  0  0  0  0  0  0
    1.4289   -2.4750    0.0000 N   0  0  0  0  0  0  0  0  0  0  0  0
    2.1434   -2.8875    0.0000 C   0  0  0  0  0  0  0  0  0  0  0  0
    2.8579   -2.4750    0.0000 C   0  0  0  0  0  0  0  0  0  0  0  0
    3.5724   -2.8875    0.0000 O   0  0  0  0  0  0  0  0  0  0  0  0
    1.4289   -1.6500    0.0000 C   0  0  0  0  0  0  0  0  0  0  0  0
    0.7145   -1.2375    0.0000 N   0  0  0  0  0  0  0  0  0  0  0  0
    0.7145   -0.4125    0.0000 C   0  0  0  0  0  0  0  0  0  0  0  0
    1.4289    0.0000    0.0000 N   0  0  0  0  0  0  0  0  0  0  0  0
    2.1434   -0.4125    0.0000 C   0  0  0  0  0  0  0  0  0  0  0  0
    2.8579    0.0000    0.0000 N   0  0  0  0  0  0  0  0  0  0  0  0
    3.5724   -0.4125    0.0000 C   0  0  0  0  0  0  0  0  0  0  0  0
    4.2868   -0.0000    0.0000 N   0  0  0  0  0  0  0  0  0  0  0  0
    4.2868    0.8250    0.0000 C   0  0  0  0  0  0  0  0  0  0  0  0
    5.0013    1.2375    0.0000 C   0  0  0  0  0  0  0  0  0  0  0  0
    5.7158    0.8250    0.0000 O   0  0  0  0  0  0  0  0  0  0  0  0
    5.7158   -0.0000    0.0000 C   0  0  0  0  0  0  0  0  0  0  0  0
    5.0013   -0.4125    0.0000 C   0  0  0  0  0  0  0  0  0  0  0  0
    3.5724   -1.2375    0.0000 C   0  0  0  0  0  0  0  0  0  0  0  0
    2.8579   -1.6500    0.0000 N   0  0  0  0  0  0  0  0  0  0  0  0
    2.1434   -1.2375    0.0000 C   0  0  0  0  0  0  0  0  0  0  0  0
    4.2868   -1.6500    0.0000 C   0  0  0  0  0  0  0  0  0  0  0  0
    5.0013   -1.2375    0.0000 C   0  0  0  0  0  0  0  0  0  0  0  0
    5.7158   -1.6500    0.0000 C   0  0  0  0  0  0  0  0  0  0  0  0
    5.7158   -2.4750    0.0000 C   0  0  0  0  0  0  0  0  0  0  0  0
    5.0013   -2.8875    0.0000 C   0  0  0  0  0  0  0  0  0  0  0  0
    4.2868   -2.4750    0.0000 C   0  0  0  0  0  0  0  0  0  0  0  0
    0.0000    0.0000    0.0000 N   0  0  0  0  0  0  0  0  0  0  0  0
   -0.7145   -0.4125    0.0000 C   0  0  0  0  0  0  0  0  0  0  0  0
   -1.4289    0.0000    0.0000 C   0  0  0  0  0  0  0  0  0  0  0  0
   -1.4289    0.8250    0.0000 O   0  0  0  0  0  0  0  0  0  0  0  0
   -0.7145    1.2375    0.0000 C   0  0  0  0  0  0  0  0  0  0  0  0
    0.0000    0.8250    0.0000 C   0  0  0  0  0  0  0  0  0  0  0  0
  1  2  1  0  0  0  0
  2  3  1  0  0  0  0
  3  4  1  0  0  0  0
  3  7  1  0  0  0  0
  4  5  1  0  0  0  0
  5  6  1  0  0  0  0
  7  8  2  0  0  0  0
  7 22  1  0  0  0  0
  8  9  1  0  0  0  0
  9 10  2  0  0  0  0
  9 29  1  0  0  0  0
 10 11  1  0  0  0  0
 11 12  2  0  0  0  0
 11 22  1  0  0  0  0
 12 13  1  0  0  0  0
 13 14  1  0  0  0  0
 13 20  2  0  0  0  0
 14 15  1  0  0  0  0
 14 19  1  0  0  0  0
 15 16  1  0  0  0  0
 16 17  1  0  0  0  0
 17 18  1  0  0  0  0
 18 19  1  0  0  0  0
 20 21  1  0  0  0  0
 20 23  1  0  0  0  0
 21 22  2  0  0  0  0
 23 24  2  0  0  0  0
 23 28  1  0  0  0  0
 24 25  1  0  0  0  0
 25 26  2  0  0  0  0
 26 27  1  0  0  0  0
 27 28  2  0  0  0  0
 29 30  1  0  0  0  0
 29 34  1  0  0  0  0
 30 31  1  0  0  0  0
 31 32  1  0  0  0  0
 32 33  1  0  0  0  0
 33 34  1  0  0  0  0
M  END
$$$$

 OpenBabel12191814062D

 37 41  0  0  0  0  0  0  0  0999 V2000
   -1.4289   -9.0750    0.0000 C   0  0  0  0  0  0  0  0  0  0  0  0
   -0.7145   -8.6625    0.0000 C   0  0  0  0  0  0  0  0  0  0  0  0
    0.0000   -9.0750    0.0000 N   0  0  0  0  0  0  0  0  0  0  0  0
    0.7145   -8.6625    0.0000 C   0  0  0  0  0  0  0  0  0  0  0  0
    0.7145   -7.8375    0.0000 C   0  0  0  0  0  0  0  0  0  0  0  0
    1.4289   -7.4250    0.0000 O   0  0  0  0  0  0  0  0  0  0  0  0
    1.4289   -6.6000    0.0000 C   0  0  0  0  0  0  0  0  0  0  0  0
    0.7145   -6.1875    0.0000 C   0  0  0  0  0  0  0  0  0  0  0  0
    0.7145   -5.3625    0.0000 C   0  0  0  0  0  0  0  0  0  0  0  0
    1.4289   -4.9500    0.0000 C   0  0  0  0  0  0  0  0  0  0  0  0
    1.4289   -4.1250    0.0000 N   0  0  0  0  0  0  0  0  0  0  0  0
    2.1434   -3.7125    0.0000 C   0  0  0  0  0  0  0  0  0  0  0  0
    2.8579   -4.1250    0.0000 O   0  0  0  0  0  0  0  0  0  0  0  0
    2.1434   -2.8875    0.0000 C   0  0  0  0  0  0  0  0  0  0  0  0
    1.4289   -2.4750    0.0000 C   0  0  0  0  0  0  0  0  0  0  0  0
    1.4289   -1.6500    0.0000 C   0  0  0  0  0  0  0  0  0  0  0  0
    2.1434   -1.2375    0.0000 C   0  0  0  0  0  0  0  0  0  0  0  0
    2.8579   -1.6500    0.0000 C   0  0  0  0  0  0  0  0  0  0  0  0
    3.5724   -1.2375    0.0000 C   0  0  0  0  0  0  0  0  0  0  0  0
    3.5724   -0.4125    0.0000 O   0  0  0  0  0  0  0  0  0  0  0  0
    4.2868   -1.6500    0.0000 C   0  0  0  0  0  0  0  0  0  0  0  0
    5.0013   -1.2375    0.0000 C   0  0  0  0  0  0  0  0  0  0  0  0
    5.7158   -1.6500    0.0000 C   0  0  0  0  0  0  0  0  0  0  0  0
    5.7158   -2.4750    0.0000 C   0  0  0  0  0  0  0  0  0  0  0  0
    5.0013   -2.8875    0.0000 C   0  0  0  0  0  0  0  0  0  0  0  0
    4.2868   -2.4750    0.0000 C   0  0  0  0  0  0  0  0  0  0  0  0
    3.5724   -2.8875    0.0000 N   0  0  0  0  0  0  0  0  0  0  0  0
    2.8579   -2.4750    0.0000 C   0  0  0  0  0  0  0  0  0  0  0  0
    2.1434   -5.3625    0.0000 C   0  0  0  0  0  0  0  0  0  0  0  0
    2.1434   -6.1875    0.0000 C   0  0  0  0  0  0  0  0  0  0  0  0
    0.0000   -9.9000    0.0000 C   0  0  0  0  0  0  0  0  0  0  0  0
   -0.7145  -10.3125    0.0000 C   0  0  0  0  0  0  0  0  0  0  0  0
   -0.7145  -11.1375    0.0000 C   0  0  0  0  0  0  0  0  0  0  0  0
   -1.4289  -11.5500    0.0000 C   0  0  0  0  0  0  0  0  0  0  0  0
   -2.1434  -11.1375    0.0000 C   0  0  0  0  0  0  0  0  0  0  0  0
   -2.1434  -10.3125    0.0000 C   0  0  0  0  0  0  0  0  0  0  0  0
   -1.4289   -9.9000    0.0000 C   0  0  0  0  0  0  0  0  0  0  0  0
  1  2  1  0  0  0  0
  2  3  1  0  0  0  0
  3  4  1  0  0  0  0
  3 31  1  0  0  0  0
  4  5  1  0  0  0  0
  5  6  1  0  0  0  0
  6  7  1  0  0  0  0
  7  8  2  0  0  0  0
  7 30  1  0  0  0  0
  8  9  1  0  0  0  0
  9 10  2  0  0  0  0
 10 11  1  0  0  0  0
 10 29  1  0  0  0  0
 11 12  1  0  0  0  0
 12 13  2  0  0  0  0
 12 14  1  0  0  0  0
 14 15  2  0  0  0  0
 14 28  1  0  0  0  0
 15 16  1  0  0  0  0
 16 17  2  0  0  0  0
 17 18  1  0  0  0  0
 18 19  1  0  0  0  0
 18 28  2  0  0  0  0
 19 20  2  0  0  0  0
 19 21  1  0  0  0  0
 21 22  2  0  0  0  0
 21 26  1  0  0  0  0
 22 23  1  0  0  0  0
 23 24  2  0  0  0  0
 24 25  1  0  0  0  0
 25 26  2  0  0  0  0
 26 27  1  0  0  0  0
 27 28  1  0  0  0  0
 29 30  2  0  0  0  0
 31 32  1  0  0  0  0
 32 33  2  0  0  0  0
 32 37  1  0  0  0  0
 33 34  1  0  0  0  0
 34 35  2  0  0  0  0
 35 36  1  0  0  0  0
 36 37  2  0  0  0  0
M  END
$$$$

 OpenBabel12191814062D

 28 31  0  0  0  0  0  0  0  0999 V2000
   -0.5837   -1.4124    0.0000 C   0  0  0  0  0  0  0  0  0  0  0  0
   -0.1712   -0.6979    0.0000 C   0  0  0  0  0  0  0  0  0  0  0  0
    0.6538   -0.6979    0.0000 N   0  0  0  0  0  0  0  0  0  0  0  0
    1.1387   -0.0305    0.0000 C   0  0  3  0  0  0  0  0  0  0  0  0
    0.8838    0.7541    0.0000 N   0  0  0  0  0  0  0  0  0  0  0  0
    0.0768    0.9256    0.0000 C   0  0  0  0  0  0  0  0  0  0  0  0
   -0.4752    0.3126    0.0000 C   0  0  0  0  0  0  0  0  0  0  0  0
   -1.2822    0.4841    0.0000 C   0  0  0  0  0  0  0  0  0  0  0  0
   -1.5371    1.2687    0.0000 C   0  0  0  0  0  0  0  0  0  0  0  0
   -2.3441    1.4402    0.0000 O   0  0  0  0  0  0  0  0  0  0  0  0
   -2.5990    2.2248    0.0000 C   0  0  0  0  0  0  0  0  0  0  0  0
   -3.4060    2.3964    0.0000 C   0  0  0  0  0  0  0  0  0  0  0  0
   -3.6610    3.1810    0.0000 N   0  0  0  0  0  0  0  0  0  0  0  0
   -4.4679    3.3525    0.0000 C   0  0  0  0  0  0  0  0  0  0  0  0
   -4.7229    4.1371    0.0000 C   0  0  0  0  0  0  0  0  0  0  0  0
   -4.1708    4.7502    0.0000 C   0  0  0  0  0  0  0  0  0  0  0  0
   -3.3639    4.5787    0.0000 C   0  0  0  0  0  0  0  0  0  0  0  0
   -3.1089    3.7941    0.0000 C   0  0  0  0  0  0  0  0  0  0  0  0
   -0.9851    1.8818    0.0000 C   0  0  0  0  0  0  0  0  0  0  0  0
   -0.1781    1.7103    0.0000 C   0  0  0  0  0  0  0  0  0  0  0  0
    1.9233   -0.2854    0.0000 C   0  0  0  0  0  0  0  0  0  0  0  0
    2.6378    0.1271    0.0000 C   0  0  0  0  0  0  0  0  0  0  0  0
    3.3523   -0.2854    0.0000 C   0  0  0  0  0  0  0  0  0  0  0  0
    3.3523   -1.1104    0.0000 C   0  0  0  0  0  0  0  0  0  0  0  0
    2.6378   -1.5229    0.0000 C   0  0  0  0  0  0  0  0  0  0  0  0
    1.9233   -1.1104    0.0000 C   0  0  0  0  0  0  0  0  0  0  0  0
    1.1387   -1.3654    0.0000 C   0  0  0  0  0  0  0  0  0  0  0  0
    0.8838   -2.1500    0.0000 O   0  0  0  0  0  0  0  0  0  0  0  0
  1  2  1  0  0  0  0
  2  3  1  0  0  0  0
  3  4  1  0  0  0  0
  3 27  1  0  0  0  0
  4  5  1  0  0  0  0
  4 21  1  0  0  0  0
  5  6  1  0  0  0  0
  6  7  2  0  0  0  0
  6 20  1  0  0  0  0
  7  8  1  0  0  0  0
  8  9  2  0  0  0  0
  9 10  1  0  0  0  0
  9 19  1  0  0  0  0
 10 11  1  0  0  0  0
 11 12  1  0  0  0  0
 12 13  1  0  0  0  0
 13 14  1  0  0  0  0
 13 18  1  0  0  0  0
 14 15  1  0  0  0  0
 15 16  1  0  0  0  0
 16 17  1  0  0  0  0
 17 18  1  0  0  0  0
 19 20  2  0  0  0  0
 21 22  2  0  0  0  0
 21 26  1  0  0  0  0
 22 23  1  0  0  0  0
 23 24  2  0  0  0  0
 24 25  1  0  0  0  0
 25 26  2  0  0  0  0
 26 27  1  0  0  0  0
 27 28  2  0  0  0  0
M  END
$$$$

 OpenBabel12191814062D

 24 27  0  0  0  0  0  0  0  0999 V2000
    2.8245    0.4437    0.0000 C   0  0  0  0  0  0  0  0  0  0  0  0
    2.3832   -0.4214    0.0000 C   0  0  0  0  0  0  0  0  0  0  0  0
    1.3941   -0.0001    0.0000 N   0  0  0  0  0  0  0  0  0  0  0  0
    1.1624    0.9268    0.0000 C   0  0  3  0  0  0  0  0  0  0  0  0
    0.5174    0.4124    0.0000 C   0  0  0  0  0  0  0  0  0  0  0  0
    0.5174   -0.4126    0.0000 C   0  0  0  0  0  0  0  0  0  0  0  0
    1.1624   -0.9270    0.0000 C   0  0  3  0  0  0  0  0  0  0  0  0
    1.9667   -0.7434    0.0000 C   0  0  0  0  0  0  0  0  0  0  0  0
    2.3247   -0.0001    0.0000 C   0  0  3  0  0  0  0  0  0  0  0  0
    1.9667    0.7432    0.0000 C   0  0  0  0  0  0  0  0  0  0  0  0
    3.2573   -0.1695    0.0000 O   0  0  0  0  0  0  0  0  0  0  0  0
    4.1056   -0.2509    0.0000 C   0  0  0  0  0  0  0  0  0  0  0  0
    4.4481   -1.0015    0.0000 C   0  0  0  0  0  0  0  0  0  0  0  0
    5.2693   -1.0802    0.0000 C   0  0  0  0  0  0  0  0  0  0  0  0
    5.6117   -1.8308    0.0000 C   0  0  0  0  0  0  0  0  0  0  0  0
    5.1329   -2.5026    0.0000 C   0  0  0  0  0  0  0  0  0  0  0  0
    4.3117   -2.4239    0.0000 C   0  0  0  0  0  0  0  0  0  0  0  0
    3.9693   -1.6733    0.0000 C   0  0  0  0  0  0  0  0  0  0  0  0
    4.5844    0.4210    0.0000 C   0  0  0  0  0  0  0  0  0  0  0  0
    4.2420    1.1715    0.0000 C   0  0  0  0  0  0  0  0  0  0  0  0
    4.7208    1.8434    0.0000 C   0  0  0  0  0  0  0  0  0  0  0  0
    5.5420    1.7646    0.0000 C   0  0  0  0  0  0  0  0  0  0  0  0
    5.8845    1.0141    0.0000 C   0  0  0  0  0  0  0  0  0  0  0  0
    5.4057    0.3422    0.0000 C   0  0  0  0  0  0  0  0  0  0  0  0
  1  2  1  0  0  0  0
  2  3  1  0  0  0  0
  3  4  1  0  0  0  0
  3  7  1  0  0  0  0
  4  5  1  0  0  0  0
  4 10  1  0  0  0  0
  5  6  1  0  0  0  0
  6  7  1  0  0  0  0
  7  8  1  0  0  0  0
  8  9  1  0  0  0  0
  9 10  1  0  0  0  0
  9 11  1  0  0  0  0
 11 12  1  0  0  0  0
 12 13  1  0  0  0  0
 12 19  1  0  0  0  0
 13 14  2  0  0  0  0
 13 18  1  0  0  0  0
 14 15  1  0  0  0  0
 15 16  2  0  0  0  0
 16 17  1  0  0  0  0
 17 18  2  0  0  0  0
 19 20  2  0  0  0  0
 19 24  1  0  0  0  0
 20 21  1  0  0  0  0
 21 22  2  0  0  0  0
 22 23  1  0  0  0  0
 23 24  2  0  0  0  0
M  END
$$$$

 OpenBabel12191814062D

 28 31  0  0  0  0  0  0  0  0999 V2000
   -0.1919   -3.8378    0.0000 C   0  0  0  0  0  0  0  0  0  0  0  0
   -0.5275   -3.0841    0.0000 C   0  0  0  0  0  0  0  0  0  0  0  0
   -0.0425   -2.4167    0.0000 N   0  0  0  0  0  0  0  0  0  0  0  0
    0.7825   -2.4167    0.0000 C   0  0  0  0  0  0  0  0  0  0  0  0
    1.0374   -1.6320    0.0000 C   0  0  3  0  0  0  0  0  0  0  0  0
    1.8220   -1.3771    0.0000 C   0  0  0  0  0  0  0  0  0  0  0  0
    2.4351   -1.9291    0.0000 C   0  0  0  0  0  0  0  0  0  0  0  0
    2.2636   -2.7361    0.0000 N   0  0  0  0  0  0  0  0  0  0  0  0
    2.8767   -3.2881    0.0000 C   0  0  0  0  0  0  0  0  0  0  0  0
    2.7052   -4.0951    0.0000 C   0  0  0  0  0  0  0  0  0  0  0  0
    1.9205   -4.3501    0.0000 O   0  0  0  0  0  0  0  0  0  0  0  0
    1.3074   -3.7980    0.0000 C   0  0  0  0  0  0  0  0  0  0  0  0
    1.4790   -2.9910    0.0000 C   0  0  0  0  0  0  0  0  0  0  0  0
    0.3700   -1.1471    0.0000 C   0  0  0  0  0  0  0  0  0  0  0  0
   -0.2975   -1.6320    0.0000 C   0  0  0  0  0  0  0  0  0  0  0  0
   -1.0821   -1.3771    0.0000 O   0  0  0  0  0  0  0  0  0  0  0  0
    0.9772   -0.5887    0.0000 C   0  0  0  0  0  0  0  0  0  0  0  0
    0.7973    0.2164    0.0000 C   0  0  0  0  0  0  0  0  0  0  0  0
    1.4046    0.7749    0.0000 C   0  0  0  0  0  0  0  0  0  0  0  0
    2.1918    0.5281    0.0000 C   0  0  0  0  0  0  0  0  0  0  0  0
    2.3718   -0.2770    0.0000 C   0  0  0  0  0  0  0  0  0  0  0  0
    1.7645   -0.8354    0.0000 C   0  0  0  0  0  0  0  0  0  0  0  0
   -0.0350   -0.4284    0.0000 C   0  0  0  0  0  0  0  0  0  0  0  0
   -0.8600   -0.4197    0.0000 C   0  0  0  0  0  0  0  0  0  0  0  0
   -1.2650    0.2990    0.0000 C   0  0  0  0  0  0  0  0  0  0  0  0
   -0.8450    1.0091    0.0000 C   0  0  0  0  0  0  0  0  0  0  0  0
   -0.0201    1.0005    0.0000 C   0  0  0  0  0  0  0  0  0  0  0  0
    0.3849    0.2817    0.0000 C   0  0  0  0  0  0  0  0  0  0  0  0
  1  2  1  0  0  0  0
  2  3  1  0  0  0  0
  3  4  1  0  0  0  0
  3 15  1  0  0  0  0
  4  5  1  0  0  0  0
  5  6  1  0  0  0  0
  5 14  1  0  0  0  0
  6  7  1  0  0  0  0
  7  8  1  0  0  0  0
  8  9  1  0  0  0  0
  8 13  1  0  0  0  0
  9 10  1  0  0  0  0
 10 11  1  0  0  0  0
 11 12  1  0  0  0  0
 12 13  1  0  0  0  0
 14 15  1  0  0  0  0
 14 17  1  0  0  0  0
 14 23  1  0  0  0  0
 15 16  2  0  0  0  0
 17 18  2  0  0  0  0
 17 22  1  0  0  0  0
 18 19  1  0  0  0  0
 19 20  2  0  0  0  0
 20 21  1  0  0  0  0
 21 22  2  0  0  0  0
 23 24  2  0  0  0  0
 23 28  1  0  0  0  0
 24 25  1  0  0  0  0
 25 26  2  0  0  0  0
 26 27  1  0  0  0  0
 27 28  2  0  0  0  0
M  END
$$$$

 OpenBabel12191814062D

 21 23  0  0  0  0  0  0  0  0999 V2000
    0.1067   -0.0616    0.0000 C   0  0  0  0  0  0  0  0  0  0  0  0
   -0.6078   -0.4741    0.0000 C   0  0  0  0  0  0  0  0  0  0  0  0
   -0.6078   -1.2991    0.0000 N   0  0  0  0  0  0  0  0  0  0  0  0
    0.0597   -1.7840    0.0000 C   0  0  0  0  0  0  0  0  0  0  0  0
   -0.1953   -2.5687    0.0000 C   0  0  0  0  0  0  0  0  0  0  0  0
   -1.0203   -2.5687    0.0000 C   0  0  0  0  0  0  0  0  0  0  0  0
   -1.2752   -1.7840    0.0000 C   0  0  0  0  0  0  0  0  0  0  0  0
   -1.5052   -3.2361    0.0000 C   0  0  0  0  0  0  0  0  0  0  0  0
   -2.3257   -3.1499    0.0000 C   0  0  0  0  0  0  0  0  0  0  0  0
   -2.8106   -3.8173    0.0000 C   0  0  0  0  0  0  0  0  0  0  0  0
   -3.6311   -3.7311    0.0000 C   0  0  0  0  0  0  0  0  0  0  0  0
   -3.9666   -2.9774    0.0000 C   0  0  0  0  0  0  0  0  0  0  0  0
   -3.4817   -2.3099    0.0000 C   0  0  0  0  0  0  0  0  0  0  0  0
   -2.6612   -2.3962    0.0000 C   0  0  0  0  0  0  0  0  0  0  0  0
   -1.1696   -3.9898    0.0000 C   0  0  0  0  0  0  0  0  0  0  0  0
   -0.3491   -4.0760    0.0000 C   0  0  0  0  0  0  0  0  0  0  0  0
   -0.0136   -4.8297    0.0000 C   0  0  0  0  0  0  0  0  0  0  0  0
   -0.4985   -5.4971    0.0000 C   0  0  0  0  0  0  0  0  0  0  0  0
   -0.1630   -6.2508    0.0000 F   0  0  0  0  0  0  0  0  0  0  0  0
   -1.3190   -5.4109    0.0000 C   0  0  0  0  0  0  0  0  0  0  0  0
   -1.6546   -4.6572    0.0000 C   0  0  0  0  0  0  0  0  0  0  0  0
  1  2  1  0  0  0  0
  2  3  1  0  0  0  0
  3  4  1  0  0  0  0
  3  7  1  0  0  0  0
  4  5  1  0  0  0  0
  5  6  1  0  0  0  0
  6  7  1  0  0  0  0
  6  8  2  0  0  0  0
  8  9  1  0  0  0  0
  8 15  1  0  0  0  0
  9 10  2  0  0  0  0
  9 14  1  0  0  0  0
 10 11  1  0  0  0  0
 11 12  2  0  0  0  0
 12 13  1  0  0  0  0
 13 14  2  0  0  0  0
 15 16  2  0  0  0  0
 15 21  1  0  0  0  0
 16 17  1  0  0  0  0
 17 18  2  0  0  0  0
 18 19  1  0  0  0  0
 18 20  1  0  0  0  0
 20 21  2  0  0  0  0
M  END
$$$$

 OpenBabel12191814062D

 23 26  0  0  0  0  0  0  0  0999 V2000
    3.2418    3.8476    0.0000 C   0  0  0  0  0  0  0  0  0  0  0  0
    2.9062    3.0940    0.0000 C   0  0  0  0  0  0  0  0  0  0  0  0
    3.3912    2.4265    0.0000 N   0  0  0  0  0  0  0  0  0  0  0  0
    4.2162    2.4265    0.0000 C   0  0  0  0  0  0  0  0  0  0  0  0
    4.4711    1.6419    0.0000 C   0  0  0  0  0  0  0  0  0  0  0  0
    3.8037    1.1570    0.0000 C   0  0  0  0  0  0  0  0  0  0  0  0
    3.1362    1.6419    0.0000 C   0  0  3  0  0  0  0  0  0  0  0  0
    2.3516    1.3870    0.0000 C   0  0  0  0  0  0  0  0  0  0  0  0
    3.8037    0.3320    0.0000 C   0  0  0  0  0  0  0  0  0  0  0  0
    4.5470   -0.0260    0.0000 C   0  0  0  0  0  0  0  0  0  0  0  0
    5.1517    0.5352    0.0000 C   0  0  0  0  0  0  0  0  0  0  0  0
    5.9401    0.2920    0.0000 C   0  0  0  0  0  0  0  0  0  0  0  0
    6.1237   -0.5123    0.0000 C   0  0  0  0  0  0  0  0  0  0  0  0
    5.5189   -1.0735    0.0000 C   0  0  0  0  0  0  0  0  0  0  0  0
    4.7305   -0.8303    0.0000 C   0  0  0  0  0  0  0  0  0  0  0  0
    4.2162   -1.4753    0.0000 C   0  0  0  0  0  0  0  0  0  0  0  0
    3.3912   -1.4753    0.0000 C   0  0  0  0  0  0  0  0  0  0  0  0
    2.8768   -0.8303    0.0000 C   0  0  0  0  0  0  0  0  0  0  0  0
    2.0884   -1.0735    0.0000 C   0  0  0  0  0  0  0  0  0  0  0  0
    1.4837   -0.5123    0.0000 C   0  0  0  0  0  0  0  0  0  0  0  0
    1.6673    0.2920    0.0000 C   0  0  0  0  0  0  0  0  0  0  0  0
    2.4556    0.5352    0.0000 C   0  0  0  0  0  0  0  0  0  0  0  0
    3.0604   -0.0260    0.0000 C   0  0  0  0  0  0  0  0  0  0  0  0
  1  2  1  0  0  0  0
  2  3  1  0  0  0  0
  3  4  1  0  0  0  0
  3  7  1  0  0  0  0
  4  5  1  0  0  0  0
  5  6  1  0  0  0  0
  6  7  1  0  0  0  0
  6  9  2  0  0  0  0
  7  8  1  0  0  0  0
  9 10  1  0  0  0  0
  9 23  1  0  0  0  0
 10 11  2  0  0  0  0
 10 15  1  0  0  0  0
 11 12  1  0  0  0  0
 12 13  2  0  0  0  0
 13 14  1  0  0  0  0
 14 15  2  0  0  0  0
 15 16  1  0  0  0  0
 16 17  1  0  0  0  0
 17 18  1  0  0  0  0
 18 19  2  0  0  0  0
 18 23  1  0  0  0  0
 19 20  1  0  0  0  0
 20 21  2  0  0  0  0
 21 22  1  0  0  0  0
 22 23  2  0  0  0  0
M  END
$$$$

 OpenBabel12191814062D

 34 38  0  0  0  0  0  0  0  0999 V2000
    3.3629    3.9855    0.0000 C   0  0  0  0  0  0  0  0  0  0  0  0
    2.6484    3.5730    0.0000 C   0  0  0  0  0  0  0  0  0  0  0  0
    2.6484    2.7480    0.0000 N   0  0  0  0  0  0  0  0  0  0  0  0
    1.9339    2.3355    0.0000 C   0  0  0  0  0  0  0  0  0  0  0  0
    1.2195    2.7480    0.0000 O   0  0  0  0  0  0  0  0  0  0  0  0
    1.9339    1.5105    0.0000 C   0  0  0  0  0  0  0  0  0  0  0  0
    2.6014    1.0256    0.0000 C   0  0  0  0  0  0  0  0  0  0  0  0
    3.4084    1.1971    0.0000 C   0  0  0  0  0  0  0  0  0  0  0  0
    3.9604    0.5840    0.0000 C   0  0  0  0  0  0  0  0  0  0  0  0
    3.7054   -0.2006    0.0000 C   0  0  0  0  0  0  0  0  0  0  0  0
    2.8985   -0.3721    0.0000 C   0  0  0  0  0  0  0  0  0  0  0  0
    2.3464    0.2410    0.0000 N   0  0  0  0  0  0  0  0  0  0  0  0
    1.5214    0.2410    0.0000 C   0  0  0  0  0  0  0  0  0  0  0  0
    0.9694   -0.3721    0.0000 C   0  0  0  0  0  0  0  0  0  0  0  0
    0.1624   -0.2006    0.0000 N   0  0  0  0  0  0  0  0  0  0  0  0
   -0.0925    0.5840    0.0000 C   0  0  0  0  0  0  0  0  0  0  0  0
    0.4595    1.1971    0.0000 N   0  0  0  0  0  0  0  0  0  0  0  0
    1.2665    1.0256    0.0000 C   0  0  0  0  0  0  0  0  0  0  0  0
    1.2243   -1.1567    0.0000 N   0  0  0  0  0  0  0  0  0  0  0  0
    2.0313   -1.3283    0.0000 C   0  0  0  0  0  0  0  0  0  0  0  0
    2.2863   -2.1129    0.0000 C   0  0  0  0  0  0  0  0  0  0  0  0
    1.7342   -2.7260    0.0000 N   0  0  0  0  0  0  0  0  0  0  0  0
    1.9892   -3.5106    0.0000 C   0  0  0  0  0  0  0  0  0  0  0  0
    2.7961   -3.6821    0.0000 C   0  0  0  0  0  0  0  0  0  0  0  0
    3.0511   -4.4668    0.0000 C   0  0  0  0  0  0  0  0  0  0  0  0
    3.8580   -4.6383    0.0000 C   0  0  0  0  0  0  0  0  0  0  0  0
    4.1130   -5.4229    0.0000 C   0  0  0  0  0  0  0  0  0  0  0  0
    3.5610   -6.0360    0.0000 C   0  0  0  0  0  0  0  0  0  0  0  0
    3.8159   -6.8206    0.0000 F   0  0  0  0  0  0  0  0  0  0  0  0
    2.7540   -5.8645    0.0000 C   0  0  0  0  0  0  0  0  0  0  0  0
    2.2020   -6.4776    0.0000 F   0  0  0  0  0  0  0  0  0  0  0  0
    2.4990   -5.0799    0.0000 C   0  0  0  0  0  0  0  0  0  0  0  0
    0.9273   -2.5545    0.0000 C   0  0  0  0  0  0  0  0  0  0  0  0
    0.6723   -1.7698    0.0000 C   0  0  0  0  0  0  0  0  0  0  0  0
  1  2  1  0  0  0  0
  2  3  1  0  0  0  0
  3  4  1  0  0  0  0
  4  5  2  0  0  0  0
  4  6  1  0  0  0  0
  6  7  2  0  0  0  0
  6 18  1  0  0  0  0
  7  8  1  0  0  0  0
  7 12  1  0  0  0  0
  8  9  1  0  0  0  0
  9 10  1  0  0  0  0
 10 11  1  0  0  0  0
 11 12  1  0  0  0  0
 12 13  1  0  0  0  0
 13 14  2  0  0  0  0
 13 18  1  0  0  0  0
 14 15  1  0  0  0  0
 14 19  1  0  0  0  0
 15 16  2  0  0  0  0
 16 17  1  0  0  0  0
 17 18  2  0  0  0  0
 19 20  1  0  0  0  0
 19 34  1  0  0  0  0
 20 21  1  0  0  0  0
 21 22  1  0  0  0  0
 22 23  1  0  0  0  0
 22 33  1  0  0  0  0
 23 24  1  0  0  0  0
 24 25  1  0  0  0  0
 25 26  2  0  0  0  0
 25 32  1  0  0  0  0
 26 27  1  0  0  0  0
 27 28  2  0  0  0  0
 28 29  1  0  0  0  0
 28 30  1  0  0  0  0
 30 31  1  0  0  0  0
 30 32  2  0  0  0  0
 33 34  1  0  0  0  0
M  END
$$$$

 OpenBabel12191814062D

 29 31  0  0  0  0  0  0  0  0999 V2000
   -6.4302   -0.4125    0.0000 C   0  0  0  0  0  0  0  0  0  0  0  0
   -5.7158   -0.0000    0.0000 C   0  0  0  0  0  0  0  0  0  0  0  0
   -5.0013   -0.4125    0.0000 N   0  0  0  0  0  0  0  0  0  0  0  0
   -4.2868   -0.0000    0.0000 C   0  0  0  0  0  0  0  0  0  0  0  0
   -4.2868    0.8250    0.0000 O   0  0  0  0  0  0  0  0  0  0  0  0
   -3.5724   -0.4125    0.0000 N   0  0  0  0  0  0  0  0  0  0  0  0
   -2.8579   -0.0000    0.0000 C   0  0  0  0  0  0  0  0  0  0  0  0
   -2.1434   -0.4125    0.0000 C   0  0  0  0  0  0  0  0  0  0  0  0
   -2.1434   -1.2375    0.0000 N   0  0  0  0  0  0  0  0  0  0  0  0
   -1.4289   -1.6500    0.0000 C   0  0  0  0  0  0  0  0  0  0  0  0
   -0.7145   -1.2375    0.0000 C   0  0  0  0  0  0  0  0  0  0  0  0
    0.0000   -1.6500    0.0000 C   0  0  0  0  0  0  0  0  0  0  0  0
    0.7145   -1.2375    0.0000 C   0  0  0  0  0  0  0  0  0  0  0  0
    1.4289   -1.6500    0.0000 C   0  0  0  0  0  0  0  0  0  0  0  0
    2.1434   -1.2375    0.0000 C   0  0  0  0  0  0  0  0  0  0  0  0
    2.8579   -1.6500    0.0000 C   0  0  0  0  0  0  0  0  0  0  0  0
    2.8579   -2.4750    0.0000 C   0  0  0  0  0  0  0  0  0  0  0  0
    3.5724   -2.8875    0.0000 F   0  0  0  0  0  0  0  0  0  0  0  0
    2.1434   -2.8875    0.0000 C   0  0  0  0  0  0  0  0  0  0  0  0
    1.4289   -2.4750    0.0000 C   0  0  0  0  0  0  0  0  0  0  0  0
    0.7145   -0.4125    0.0000 C   0  0  0  0  0  0  0  0  0  0  0  0
    0.0000    0.0000    0.0000 C   0  0  0  0  0  0  0  0  0  0  0  0
    0.0000    0.8250    0.0000 C   0  0  0  0  0  0  0  0  0  0  0  0
    0.7145    1.2375    0.0000 C   0  0  0  0  0  0  0  0  0  0  0  0
    0.7145    2.0625    0.0000 F   0  0  0  0  0  0  0  0  0  0  0  0
    1.4289    0.8250    0.0000 C   0  0  0  0  0  0  0  0  0  0  0  0
    1.4289    0.0000    0.0000 C   0  0  0  0  0  0  0  0  0  0  0  0
   -2.8579   -1.6500    0.0000 C   0  0  0  0  0  0  0  0  0  0  0  0
   -3.5724   -1.2375    0.0000 C   0  0  0  0  0  0  0  0  0  0  0  0
  1  2  1  0  0  0  0
  2  3  1  0  0  0  0
  3  4  1  0  0  0  0
  4  5  2  0  0  0  0
  4  6  1  0  0  0  0
  6  7  1  0  0  0  0
  6 29  1  0  0  0  0
  7  8  1  0  0  0  0
  8  9  1  0  0  0  0
  9 10  1  0  0  0  0
  9 28  1  0  0  0  0
 10 11  1  0  0  0  0
 11 12  1  0  0  0  0
 12 13  1  0  0  0  0
 13 14  1  0  0  0  0
 13 21  1  0  0  0  0
 14 15  2  0  0  0  0
 14 20  1  0  0  0  0
 15 16  1  0  0  0  0
 16 17  2  0  0  0  0
 17 18  1  0  0  0  0
 17 19  1  0  0  0  0
 19 20  2  0  0  0  0
 21 22  2  0  0  0  0
 21 27  1  0  0  0  0
 22 23  1  0  0  0  0
 23 24  2  0  0  0  0
 24 25  1  0  0  0  0
 24 26  1  0  0  0  0
 26 27  2  0  0  0  0
 28 29  1  0  0  0  0
M  END
$$$$

 OpenBabel12191814062D

 36 40  0  0  0  0  0  0  0  0999 V2000
    2.5039   -9.7264    0.0000 C   0  0  0  0  0  0  0  0  0  0  0  0
    2.7842   -8.9504    0.0000 C   0  0  0  0  0  0  0  0  0  0  0  0
    2.2524   -8.3197    0.0000 N   0  0  0  0  0  0  0  0  0  0  0  0
    2.5327   -7.5438    0.0000 C   0  0  0  0  0  0  0  0  0  0  0  0
    3.3448   -7.3986    0.0000 O   0  0  0  0  0  0  0  0  0  0  0  0
    2.0009   -6.9131    0.0000 N   0  0  0  0  0  0  0  0  0  0  0  0
    2.2812   -6.1372    0.0000 C   0  0  0  0  0  0  0  0  0  0  0  0
    1.7493   -5.5065    0.0000 C   0  0  0  0  0  0  0  0  0  0  0  0
    2.0296   -4.7305    0.0000 C   0  0  0  0  0  0  0  0  0  0  0  0
    2.8417   -4.5853    0.0000 C   0  0  0  0  0  0  0  0  0  0  0  0
    3.1220   -3.8094    0.0000 S   0  0  0  0  0  0  0  0  0  0  0  0
    2.5902   -3.1787    0.0000 C   0  0  3  0  0  0  0  0  0  0  0  0
    1.7781   -3.3239    0.0000 C   0  0  0  0  0  0  0  0  0  0  0  0
    1.2463   -2.6932    0.0000 C   0  0  0  0  0  0  0  0  0  0  0  0
    0.4342   -2.8384    0.0000 C   0  0  0  0  0  0  0  0  0  0  0  0
   -0.0976   -2.2077    0.0000 C   0  0  0  0  0  0  0  0  0  0  0  0
   -0.9098   -2.3529    0.0000 O   0  0  0  0  0  0  0  0  0  0  0  0
    0.1827   -1.4318    0.0000 C   0  0  0  0  0  0  0  0  0  0  0  0
    0.9948   -1.2866    0.0000 C   0  0  0  0  0  0  0  0  0  0  0  0
    1.5266   -1.9173    0.0000 C   0  0  3  0  0  0  0  0  0  0  0  0
    1.8069   -1.1414    0.0000 C   0  0  0  0  0  0  0  0  0  0  0  0
    2.3387   -1.7721    0.0000 C   0  0  3  0  0  0  0  0  0  0  0  0
    2.6190   -0.9961    0.0000 C   0  0  0  0  0  0  0  0  0  0  0  0
    3.4311   -0.8509    0.0000 C   0  0  0  0  0  0  0  0  0  0  0  0
    3.9629   -1.4816    0.0000 C   0  0  3  0  0  0  0  0  0  0  0  0
    4.3228   -0.7393    0.0000 C   0  0  0  0  0  0  0  0  0  0  0  0
    3.6826   -2.2576    0.0000 C   0  0  3  0  0  0  0  0  0  0  0  0
    4.3340   -2.7639    0.0000 C   0  0  0  0  0  0  0  0  0  0  0  0
    5.0168   -2.3009    0.0000 C   0  0  0  0  0  0  0  0  0  0  0  0
    4.7875   -1.5084    0.0000 C   0  0  3  0  0  0  0  0  0  0  0  0
    5.2939   -0.8571    0.0000 C   0  0  0  0  0  0  0  0  0  0  0  0
    4.9830   -0.0929    0.0000 C   0  0  0  0  0  0  0  0  0  0  0  0
    6.1111   -0.9700    0.0000 O   0  0  0  0  0  0  0  0  0  0  0  0
    2.8705   -2.4028    0.0000 C   0  0  3  0  0  0  0  0  0  0  0  0
    3.3736   -5.2160    0.0000 C   0  0  0  0  0  0  0  0  0  0  0  0
    3.0933   -5.9920    0.0000 C   0  0  0  0  0  0  0  0  0  0  0  0
  1  2  1  0  0  0  0
  2  3  1  0  0  0  0
  3  4  1  0  0  0  0
  4  5  2  0  0  0  0
  4  6  1  0  0  0  0
  6  7  1  0  0  0  0
  7  8  2  0  0  0  0
  7 36  1  0  0  0  0
  8  9  1  0  0  0  0
  9 10  2  0  0  0  0
 10 11  1  0  0  0  0
 10 35  1  0  0  0  0
 11 12  1  0  0  0  0
 12 13  1  0  0  0  0
 12 34  1  0  0  0  0
 13 14  1  0  0  0  0
 14 15  2  0  0  0  0
 14 20  1  0  0  0  0
 15 16  1  0  0  0  0
 16 17  2  0  0  0  0
 16 18  1  0  0  0  0
 18 19  1  0  0  0  0
 19 20  1  0  0  0  0
 20 21  1  0  0  0  0
 20 22  1  0  0  0  0
 22 23  1  0  0  0  0
 22 34  1  0  0  0  0
 23 24  1  0  0  0  0
 24 25  1  0  0  0  0
 25 26  1  0  0  0  0
 25 27  1  0  0  0  0
 25 30  1  0  0  0  0
 27 28  1  0  0  0  0
 27 34  1  0  0  0  0
 28 29  1  0  0  0  0
 29 30  1  0  0  0  0
 30 31  1  0  0  0  0
 31 32  1  0  0  0  0
 31 33  2  0  0  0  0
 35 36  2  0  0  0  0
M  END
$$$$

 OpenBabel12191814062D

 36 39  0  0  0  0  0  0  0  0999 V2000
    0.0000    3.3000    0.0000 C   0  0  0  0  0  0  0  0  0  0  0  0
    0.0000    2.4750    0.0000 C   0  0  0  0  0  0  0  0  0  0  0  0
    0.7145    2.0625    0.0000 N   0  0  0  0  0  0  0  0  0  0  0  0
    0.7145    1.2375    0.0000 C   0  0  0  0  0  0  0  0  0  0  0  0
    1.4289    0.8250    0.0000 C   0  0  0  0  0  0  0  0  0  0  0  0
    1.4289   -0.0000    0.0000 C   0  0  0  0  0  0  0  0  0  0  0  0
    0.7145   -0.4125    0.0000 C   0  0  0  0  0  0  0  0  0  0  0  0
    0.0000   -0.0000    0.0000 C   0  0  0  0  0  0  0  0  0  0  0  0
    0.0000    0.8250    0.0000 C   0  0  0  0  0  0  0  0  0  0  0  0
    0.7145   -1.2375    0.0000 C   0  0  0  0  0  0  0  0  0  0  0  0
    1.3819   -1.7224    0.0000 N   0  0  0  0  0  0  0  0  0  0  0  0
    1.1270   -2.5070    0.0000 C   0  0  0  0  0  0  0  0  0  0  0  0
    0.3020   -2.5070    0.0000 N   0  0  0  0  0  0  0  0  0  0  0  0
    0.0470   -1.7224    0.0000 C   0  0  0  0  0  0  0  0  0  0  0  0
   -0.7376   -1.4675    0.0000 C   0  0  0  0  0  0  0  0  0  0  0  0
   -1.3507   -2.0195    0.0000 C   0  0  0  0  0  0  0  0  0  0  0  0
   -2.1353   -1.7646    0.0000 C   0  0  0  0  0  0  0  0  0  0  0  0
   -2.3068   -0.9576    0.0000 C   0  0  0  0  0  0  0  0  0  0  0  0
   -3.0915   -0.7027    0.0000 N   0  0  0  0  0  0  0  0  0  0  0  0
   -3.7045   -1.2547    0.0000 C   0  0  0  0  0  0  0  0  0  0  0  0
   -3.5330   -2.0617    0.0000 C   0  0  0  0  0  0  0  0  0  0  0  0
   -4.4892   -0.9998    0.0000 C   0  0  0  0  0  0  0  0  0  0  0  0
   -1.6937   -0.4056    0.0000 C   0  0  0  0  0  0  0  0  0  0  0  0
   -0.9091   -0.6605    0.0000 C   0  0  0  0  0  0  0  0  0  0  0  0
    1.6119   -3.1745    0.0000 C   0  0  0  0  0  0  0  0  0  0  0  0
    2.4324   -3.0882    0.0000 C   0  0  0  0  0  0  0  0  0  0  0  0
    2.9173   -3.7557    0.0000 C   0  0  0  0  0  0  0  0  0  0  0  0
    2.5817   -4.5094    0.0000 C   0  0  0  0  0  0  0  0  0  0  0  0
    3.0667   -5.1768    0.0000 C   0  0  0  0  0  0  0  0  0  0  0  0
    2.7311   -5.9305    0.0000 C   0  0  0  0  0  0  0  0  0  0  0  0
    3.2160   -6.5979    0.0000 C   0  0  0  0  0  0  0  0  0  0  0  0
    4.0365   -6.5117    0.0000 O   0  0  0  0  0  0  0  0  0  0  0  0
    4.5214   -7.1791    0.0000 C   0  0  0  0  0  0  0  0  0  0  0  0
    5.3419   -7.0929    0.0000 C   0  0  0  0  0  0  0  0  0  0  0  0
    1.7613   -4.5956    0.0000 C   0  0  0  0  0  0  0  0  0  0  0  0
    1.2763   -3.9282    0.0000 C   0  0  0  0  0  0  0  0  0  0  0  0
  1  2  1  0  0  0  0
  2  3  1  0  0  0  0
  3  4  1  0  0  0  0
  4  5  2  0  0  0  0
  4  9  1  0  0  0  0
  5  6  1  0  0  0  0
  6  7  2  0  0  0  0
  7  8  1  0  0  0  0
  7 10  1  0  0  0  0
  8  9  2  0  0  0  0
 10 11  1  0  0  0  0
 10 14  2  0  0  0  0
 11 12  1  0  0  0  0
 12 13  2  0  0  0  0
 12 25  1  0  0  0  0
 13 14  1  0  0  0  0
 14 15  1  0  0  0  0
 15 16  2  0  0  0  0
 15 24  1  0  0  0  0
 16 17  1  0  0  0  0
 17 18  2  0  0  0  0
 18 19  1  0  0  0  0
 18 23  1  0  0  0  0
 19 20  1  0  0  0  0
 20 21  1  0  0  0  0
 20 22  1  0  0  0  0
 23 24  2  0  0  0  0
 25 26  2  0  0  0  0
 25 36  1  0  0  0  0
 26 27  1  0  0  0  0
 27 28  2  0  0  0  0
 28 29  1  0  0  0  0
 28 35  1  0  0  0  0
 29 30  2  0  0  0  0
 30 31  1  0  0  0  0
 31 32  1  0  0  0  0
 32 33  1  0  0  0  0
 33 34  1  0  0  0  0
 35 36  2  0  0  0  0
M  END
$$$$

 OpenBabel12191814062D

 36 40  0  0  0  0  0  0  0  0999 V2000
    0.2313    6.5195    0.0000 C   0  0  0  0  0  0  0  0  0  0  0  0
    0.9458    6.1070    0.0000 C   0  0  0  0  0  0  0  0  0  0  0  0
    1.6603    6.5195    0.0000 N   0  0  0  0  0  0  0  0  0  0  0  0
    2.3747    6.1070    0.0000 C   0  0  0  0  0  0  0  0  0  0  0  0
    3.0892    6.5195    0.0000 N   0  0  0  0  0  0  0  0  0  0  0  0
    3.8037    6.1070    0.0000 C   0  0  0  0  0  0  0  0  0  0  0  0
    4.5181    6.5195    0.0000 N   0  0  0  0  0  0  0  0  0  0  0  0
    4.5181    7.3445    0.0000 C   0  0  0  0  0  0  0  0  0  0  0  0
    5.2326    7.7570    0.0000 C   0  0  0  0  0  0  0  0  0  0  0  0
    5.2326    8.5820    0.0000 C   0  0  0  0  0  0  0  0  0  0  0  0
    3.8037    5.2820    0.0000 N   0  0  0  0  0  0  0  0  0  0  0  0
    3.0892    4.8695    0.0000 C   0  0  0  0  0  0  0  0  0  0  0  0
    2.3747    5.2820    0.0000 N   0  0  0  0  0  0  0  0  0  0  0  0
    3.0892    4.0445    0.0000 N   0  0  0  0  0  0  0  0  0  0  0  0
    3.8037    3.6320    0.0000 C   0  0  0  0  0  0  0  0  0  0  0  0
    3.8037    2.8070    0.0000 C   0  0  0  0  0  0  0  0  0  0  0  0
    3.0892    2.3945    0.0000 C   0  0  0  0  0  0  0  0  0  0  0  0
    2.3747    2.8070    0.0000 C   0  0  0  0  0  0  0  0  0  0  0  0
    2.3747    3.6320    0.0000 C   0  0  0  0  0  0  0  0  0  0  0  0
    3.0892    1.5695    0.0000 N   0  0  0  0  0  0  0  0  0  0  0  0
    3.8037    1.1570    0.0000 C   0  0  0  0  0  0  0  0  0  0  0  0
    3.8037    0.3320    0.0000 C   0  0  0  0  0  0  0  0  0  0  0  0
    4.5470   -0.0260    0.0000 C   0  0  0  0  0  0  0  0  0  0  0  0
    5.1517    0.5352    0.0000 C   0  0  0  0  0  0  0  0  0  0  0  0
    5.9401    0.2920    0.0000 C   0  0  0  0  0  0  0  0  0  0  0  0
    6.1237   -0.5123    0.0000 C   0  0  0  0  0  0  0  0  0  0  0  0
    5.5189   -1.0735    0.0000 C   0  0  0  0  0  0  0  0  0  0  0  0
    4.7305   -0.8303    0.0000 C   0  0  0  0  0  0  0  0  0  0  0  0
    4.2162   -1.4753    0.0000 C   0  0  0  0  0  0  0  0  0  0  0  0
    3.3912   -1.4753    0.0000 C   0  0  0  0  0  0  0  0  0  0  0  0
    2.8768   -0.8303    0.0000 C   0  0  0  0  0  0  0  0  0  0  0  0
    2.0884   -1.0735    0.0000 C   0  0  0  0  0  0  0  0  0  0  0  0
    1.4837   -0.5123    0.0000 C   0  0  0  0  0  0  0  0  0  0  0  0
    1.6673    0.2920    0.0000 C   0  0  0  0  0  0  0  0  0  0  0  0
    2.4556    0.5352    0.0000 C   0  0  0  0  0  0  0  0  0  0  0  0
    3.0604   -0.0260    0.0000 C   0  0  0  0  0  0  0  0  0  0  0  0
  1  2  1  0  0  0  0
  2  3  1  0  0  0  0
  3  4  1  0  0  0  0
  4  5  2  0  0  0  0
  4 13  1  0  0  0  0
  5  6  1  0  0  0  0
  6  7  1  0  0  0  0
  6 11  2  0  0  0  0
  7  8  1  0  0  0  0
  8  9  1  0  0  0  0
  9 10  2  0  0  0  0
 11 12  1  0  0  0  0
 12 13  2  0  0  0  0
 12 14  1  0  0  0  0
 14 15  1  0  0  0  0
 14 19  1  0  0  0  0
 15 16  1  0  0  0  0
 16 17  1  0  0  0  0
 17 18  1  0  0  0  0
 17 20  1  0  0  0  0
 18 19  1  0  0  0  0
 20 21  1  0  0  0  0
 21 22  1  0  0  0  0
 22 23  1  0  0  0  0
 22 36  1  0  0  0  0
 23 24  2  0  0  0  0
 23 28  1  0  0  0  0
 24 25  1  0  0  0  0
 25 26  2  0  0  0  0
 26 27  1  0  0  0  0
 27 28  2  0  0  0  0
 28 29  1  0  0  0  0
 29 30  1  0  0  0  0
 30 31  1  0  0  0  0
 31 32  2  0  0  0  0
 31 36  1  0  0  0  0
 32 33  1  0  0  0  0
 33 34  2  0  0  0  0
 34 35  1  0  0  0  0
 35 36  2  0  0  0  0
M  END
$$$$

 OpenBabel12191814062D

 23 25  0  0  0  0  0  0  0  0999 V2000
   -3.5724   -2.8875    0.0000 C   0  0  0  0  0  0  0  0  0  0  0  0
   -2.8579   -2.4750    0.0000 C   0  0  0  0  0  0  0  0  0  0  0  0
   -2.1434   -2.8875    0.0000 N   0  0  0  0  0  0  0  0  0  0  0  0
   -1.4289   -2.4750    0.0000 C   0  0  0  0  0  0  0  0  0  0  0  0
   -0.7145   -2.8875    0.0000 C   0  0  0  0  0  0  0  0  0  0  0  0
    0.0000   -2.4750    0.0000 C   0  0  0  0  0  0  0  0  0  0  0  0
    0.7145   -2.8875    0.0000 C   0  0  0  0  0  0  0  0  0  0  0  0
    1.4289   -2.4750    0.0000 N   0  0  0  0  0  0  0  0  0  0  0  0
    1.4289   -1.6500    0.0000 C   0  0  0  0  0  0  0  0  0  0  0  0
    0.7145   -1.2375    0.0000 C   0  0  0  0  0  0  0  0  0  0  0  0
    0.7145   -0.4125    0.0000 C   0  0  0  0  0  0  0  0  0  0  0  0
    1.4289    0.0000    0.0000 N   0  0  0  0  0  0  0  0  0  0  0  0
    2.1434   -0.4125    0.0000 C   0  0  0  0  0  0  0  0  0  0  0  0
    2.8579    0.0000    0.0000 C   0  0  0  0  0  0  0  0  0  0  0  0
    3.5724   -0.4125    0.0000 C   0  0  0  0  0  0  0  0  0  0  0  0
    4.2868   -0.0000    0.0000 Cl  0  0  0  0  0  0  0  0  0  0  0  0
    3.5724   -1.2375    0.0000 C   0  0  0  0  0  0  0  0  0  0  0  0
    2.8579   -1.6500    0.0000 C   0  0  0  0  0  0  0  0  0  0  0  0
    2.1434   -1.2375    0.0000 C   0  0  0  0  0  0  0  0  0  0  0  0
    0.7145   -3.7125    0.0000 C   0  0  0  0  0  0  0  0  0  0  0  0
    0.0000   -4.1250    0.0000 C   0  0  0  0  0  0  0  0  0  0  0  0
   -0.7145   -3.7125    0.0000 C   0  0  0  0  0  0  0  0  0  0  0  0
   -1.4289   -4.1250    0.0000 O   0  0  0  0  0  0  0  0  0  0  0  0
  1  2  1  0  0  0  0
  2  3  1  0  0  0  0
  3  4  1  0  0  0  0
  4  5  1  0  0  0  0
  5  6  2  0  0  0  0
  5 22  1  0  0  0  0
  6  7  1  0  0  0  0
  7  8  1  0  0  0  0
  7 20  2  0  0  0  0
  8  9  1  0  0  0  0
  9 10  2  0  0  0  0
  9 19  1  0  0  0  0
 10 11  1  0  0  0  0
 11 12  2  0  0  0  0
 12 13  1  0  0  0  0
 13 14  2  0  0  0  0
 13 19  1  0  0  0  0
 14 15  1  0  0  0  0
 15 16  1  0  0  0  0
 15 17  2  0  0  0  0
 17 18  1  0  0  0  0
 18 19  2  0  0  0  0
 20 21  1  0  0  0  0
 21 22  2  0  0  0  0
 22 23  1  0  0  0  0
M  END
$$$$

 OpenBabel12191814062D

 28 30  0  0  0  0  0  0  0  0999 V2000
   -3.6791    1.1759    0.0000 C   0  0  0  0  0  0  0  0  0  0  0  0
   -2.9646    0.7634    0.0000 C   0  0  0  0  0  0  0  0  0  0  0  0
   -2.2501    1.1759    0.0000 O   0  0  0  0  0  0  0  0  0  0  0  0
   -1.5356    0.7634    0.0000 C   0  0  0  0  0  0  0  0  0  0  0  0
   -1.5356   -0.0616    0.0000 O   0  0  0  0  0  0  0  0  0  0  0  0
   -0.8212    1.1759    0.0000 C   0  0  0  0  0  0  0  0  0  0  0  0
   -0.1067    0.7634    0.0000 C   0  0  0  0  0  0  0  0  0  0  0  0
    0.6078    1.1759    0.0000 C   0  0  0  0  0  0  0  0  0  0  0  0
    0.6078    2.0009    0.0000 C   0  0  0  0  0  0  0  0  0  0  0  0
    1.3222    2.4134    0.0000 C   0  0  0  0  0  0  0  0  0  0  0  0
    2.0367    2.0009    0.0000 C   0  0  0  0  0  0  0  0  0  0  0  0
    2.0367    1.1759    0.0000 C   0  0  0  0  0  0  0  0  0  0  0  0
    1.3222    0.7634    0.0000 N   0  0  0  0  0  0  0  0  0  0  0  0
    2.7512    0.7634    0.0000 C   0  0  0  0  0  0  0  0  0  0  0  0
    2.7512   -0.0616    0.0000 C   0  0  0  0  0  0  0  0  0  0  0  0
    3.4656   -0.4741    0.0000 C   0  0  0  0  0  0  0  0  0  0  0  0
    3.4656   -1.2991    0.0000 N   0  0  0  0  0  0  0  0  0  0  0  0
    4.1331   -1.7840    0.0000 C   0  0  0  0  0  0  0  0  0  0  0  0
    3.8781   -2.5687    0.0000 C   0  0  0  0  0  0  0  0  0  0  0  0
    3.0531   -2.5687    0.0000 C   0  0  0  0  0  0  0  0  0  0  0  0
    2.7982   -1.7840    0.0000 C   0  0  0  0  0  0  0  0  0  0  0  0
    3.4656    1.1759    0.0000 C   0  0  0  0  0  0  0  0  0  0  0  0
    3.4656    2.0009    0.0000 C   0  0  0  0  0  0  0  0  0  0  0  0
    4.1801    2.4134    0.0000 C   0  0  0  0  0  0  0  0  0  0  0  0
    4.8946    2.0009    0.0000 C   0  0  0  0  0  0  0  0  0  0  0  0
    5.6091    2.4134    0.0000 C   0  0  0  0  0  0  0  0  0  0  0  0
    4.8946    1.1759    0.0000 C   0  0  0  0  0  0  0  0  0  0  0  0
    4.1801    0.7634    0.0000 C   0  0  0  0  0  0  0  0  0  0  0  0
  1  2  1  0  0  0  0
  2  3  1  0  0  0  0
  3  4  1  0  0  0  0
  4  5  2  0  0  0  0
  4  6  1  0  0  0  0
  6  7  2  0  0  0  0
  7  8  1  0  0  0  0
  8  9  2  0  0  0  0
  8 13  1  0  0  0  0
  9 10  1  0  0  0  0
 10 11  2  0  0  0  0
 11 12  1  0  0  0  0
 12 13  2  0  0  0  0
 12 14  1  0  0  0  0
 14 15  2  0  0  0  0
 14 22  1  0  0  0  0
 15 16  1  0  0  0  0
 16 17  1  0  0  0  0
 17 18  1  0  0  0  0
 17 21  1  0  0  0  0
 18 19  1  0  0  0  0
 19 20  1  0  0  0  0
 20 21  1  0  0  0  0
 22 23  2  0  0  0  0
 22 28  1  0  0  0  0
 23 24  1  0  0  0  0
 24 25  2  0  0  0  0
 25 26  1  0  0  0  0
 25 27  1  0  0  0  0
 27 28  2  0  0  0  0
M  END
$$$$

 OpenBabel12191814062D

 32 35  0  0  0  0  0  0  0  0999 V2000
   -1.8212   -2.1269    0.0000 C   0  0  0  0  0  0  0  0  0  0  0  0
   -1.4087   -1.4124    0.0000 C   0  0  0  0  0  0  0  0  0  0  0  0
   -0.5837   -1.4124    0.0000 O   0  0  0  0  0  0  0  0  0  0  0  0
   -0.1712   -0.6979    0.0000 C   0  0  0  0  0  0  0  0  0  0  0  0
   -0.5837    0.0165    0.0000 O   0  0  0  0  0  0  0  0  0  0  0  0
    0.6538   -0.6979    0.0000 C   0  0  0  0  0  0  0  0  0  0  0  0
    1.1387   -0.0305    0.0000 N   0  0  0  0  0  0  0  0  0  0  0  0
    1.9233   -0.2854    0.0000 C   0  0  0  0  0  0  0  0  0  0  0  0
    2.6378    0.1271    0.0000 C   0  0  0  0  0  0  0  0  0  0  0  0
    3.3523   -0.2854    0.0000 C   0  0  0  0  0  0  0  0  0  0  0  0
    4.0668    0.1271    0.0000 O   0  0  0  0  0  0  0  0  0  0  0  0
    4.7812   -0.2854    0.0000 C   0  0  0  0  0  0  0  0  0  0  0  0
    3.3523   -1.1104    0.0000 C   0  0  0  0  0  0  0  0  0  0  0  0
    4.0668   -1.5229    0.0000 O   0  0  0  0  0  0  0  0  0  0  0  0
    4.0668   -2.3479    0.0000 C   0  0  0  0  0  0  0  0  0  0  0  0
    2.6378   -1.5229    0.0000 C   0  0  0  0  0  0  0  0  0  0  0  0
    1.9233   -1.1104    0.0000 C   0  0  0  0  0  0  0  0  0  0  0  0
    1.1387   -1.3654    0.0000 C   0  0  0  0  0  0  0  0  0  0  0  0
    0.8838   -2.1500    0.0000 C   0  0  0  0  0  0  0  0  0  0  0  0
    1.4358   -2.7631    0.0000 C   0  0  0  0  0  0  0  0  0  0  0  0
    1.1809   -3.5477    0.0000 N   0  0  0  0  0  0  0  0  0  0  0  0
    1.7329   -4.1608    0.0000 C   0  0  0  0  0  0  0  0  0  0  0  0
    1.4780   -4.9454    0.0000 C   0  0  0  0  0  0  0  0  0  0  0  0
    0.6710   -5.1170    0.0000 N   0  0  0  0  0  0  0  0  0  0  0  0
    0.1190   -4.5039    0.0000 C   0  0  0  0  0  0  0  0  0  0  0  0
    0.3739   -3.7192    0.0000 C   0  0  0  0  0  0  0  0  0  0  0  0
    0.4161   -5.9016    0.0000 C   0  0  0  0  0  0  0  0  0  0  0  0
    0.9681   -6.5147    0.0000 C   0  0  0  0  0  0  0  0  0  0  0  0
    0.7132   -7.2993    0.0000 C   0  0  0  0  0  0  0  0  0  0  0  0
   -0.0938   -7.4708    0.0000 C   0  0  0  0  0  0  0  0  0  0  0  0
   -0.6459   -6.8577    0.0000 C   0  0  0  0  0  0  0  0  0  0  0  0
   -0.3909   -6.0731    0.0000 C   0  0  0  0  0  0  0  0  0  0  0  0
  1  2  1  0  0  0  0
  2  3  1  0  0  0  0
  3  4  1  0  0  0  0
  4  5  2  0  0  0  0
  4  6  1  0  0  0  0
  6  7  1  0  0  0  0
  6 18  2  0  0  0  0
  7  8  1  0  0  0  0
  8  9  2  0  0  0  0
  8 17  1  0  0  0  0
  9 10  1  0  0  0  0
 10 11  1  0  0  0  0
 10 13  2  0  0  0  0
 11 12  1  0  0  0  0
 13 14  1  0  0  0  0
 13 16  1  0  0  0  0
 14 15  1  0  0  0  0
 16 17  2  0  0  0  0
 17 18  1  0  0  0  0
 18 19  1  0  0  0  0
 19 20  1  0  0  0  0
 20 21  1  0  0  0  0
 21 22  1  0  0  0  0
 21 26  1  0  0  0  0
 22 23  1  0  0  0  0
 23 24  1  0  0  0  0
 24 25  1  0  0  0  0
 24 27  1  0  0  0  0
 25 26  1  0  0  0  0
 27 28  2  0  0  0  0
 27 32  1  0  0  0  0
 28 29  1  0  0  0  0
 29 30  2  0  0  0  0
 30 31  1  0  0  0  0
 31 32  2  0  0  0  0
M  END
$$$$

 OpenBabel12191814062D

 36 38  0  0  0  0  0  0  0  0999 V2000
    2.8579   -0.0000    0.0000 C   0  0  0  0  0  0  0  0  0  0  0  0
    2.1434   -0.4125    0.0000 C   0  0  0  0  0  0  0  0  0  0  0  0
    1.4289   -0.0000    0.0000 O   0  0  0  0  0  0  0  0  0  0  0  0
    0.7145   -0.4125    0.0000 C   0  0  0  0  0  0  0  0  0  0  0  0
    0.3381    0.0906    0.0000 O   0  0  0  0  0  0  0  0  0  0  0  0
    0.7145   -1.2375    0.0000 C   0  0  0  0  0  0  0  0  0  0  0  0
    1.4289   -1.6500    0.0000 C   0  0  0  0  0  0  0  0  0  0  0  0
    2.1434   -1.2375    0.0000 C   0  0  0  0  0  0  0  0  0  0  0  0
    1.4289   -2.4750    0.0000 N   0  0  0  0  0  0  0  0  0  0  0  0
    2.1434   -2.8875    0.0000 C   0  0  0  0  0  0  0  0  0  0  0  0
    2.1434   -3.7125    0.0000 C   0  0  0  0  0  0  0  0  0  0  0  0
    2.8579   -4.1250    0.0000 N   0  0  0  0  0  0  0  0  0  0  0  0
    3.5724   -3.7125    0.0000 C   0  0  0  0  0  0  0  0  0  0  0  0
    4.2868   -4.1250    0.0000 C   0  0  0  0  0  0  0  0  0  0  0  0
    4.2868   -4.9500    0.0000 O   0  0  0  0  0  0  0  0  0  0  0  0
    3.5724   -5.3625    0.0000 C   0  0  0  0  0  0  0  0  0  0  0  0
    2.8579   -4.9500    0.0000 C   0  0  0  0  0  0  0  0  0  0  0  0
    0.7145   -2.8875    0.0000 C   0  0  0  0  0  0  0  0  0  0  0  0
    0.7145   -3.7125    0.0000 C   0  0  0  0  0  0  0  0  0  0  0  0
    0.0000   -2.4750    0.0000 C   0  0  0  0  0  0  0  0  0  0  0  0
    0.0000   -1.6500    0.0000 C   0  0  3  0  0  0  0  0  0  0  0  0
   -0.7145   -1.2375    0.0000 C   0  0  0  0  0  0  0  0  0  0  0  0
   -1.4289   -1.6500    0.0000 C   0  0  0  0  0  0  0  0  0  0  0  0
   -2.1434   -1.2375    0.0000 C   0  0  0  0  0  0  0  0  0  0  0  0
   -2.1434   -0.4125    0.0000 C   0  0  0  0  0  0  0  0  0  0  0  0
   -1.4289   -0.0000    0.0000 C   0  0  0  0  0  0  0  0  0  0  0  0
   -0.7145   -0.4125    0.0000 C   0  0  0  0  0  0  0  0  0  0  0  0
    0.0000    0.0000    0.0000 C   0  0  0  0  0  0  0  0  0  0  0  0
    0.7145    0.4125    0.0000 F   0  0  0  0  0  0  0  0  0  0  0  0
    0.4125   -0.7145    0.0000 F   0  0  0  0  0  0  0  0  0  0  0  0
   -0.4125    0.7145    0.0000 F   0  0  0  0  0  0  0  0  0  0  0  0
   -0.7145   -2.8875    0.0000 C   0  0  0  0  0  0  0  0  0  0  0  0
   -1.4289   -2.4750    0.0000 O   0  0  0  0  0  0  0  0  0  0  0  0
   -0.7145   -3.7125    0.0000 O   0  0  0  0  0  0  0  0  0  0  0  0
   -0.0000   -4.1250    0.0000 C   0  0  0  0  0  0  0  0  0  0  0  0
   -0.0000   -4.9500    0.0000 C   0  0  0  0  0  0  0  0  0  0  0  0
  1  2  1  0  0  0  0
  2  3  1  0  0  0  0
  3  4  1  0  0  0  0
  4  5  2  0  0  0  0
  4  6  1  0  0  0  0
  6  7  2  0  0  0  0
  6 21  1  0  0  0  0
  7  8  1  0  0  0  0
  7  9  1  0  0  0  0
  9 10  1  0  0  0  0
  9 18  1  0  0  0  0
 10 11  1  0  0  0  0
 11 12  1  0  0  0  0
 12 13  1  0  0  0  0
 12 17  1  0  0  0  0
 13 14  1  0  0  0  0
 14 15  1  0  0  0  0
 15 16  1  0  0  0  0
 16 17  1  0  0  0  0
 18 19  1  0  0  0  0
 18 20  2  0  0  0  0
 20 21  1  0  0  0  0
 20 32  1  0  0  0  0
 21 22  1  0  0  0  0
 22 23  2  0  0  0  0
 22 27  1  0  0  0  0
 23 24  1  0  0  0  0
 24 25  2  0  0  0  0
 25 26  1  0  0  0  0
 26 27  2  0  0  0  0
 27 28  1  0  0  0  0
 28 29  1  0  0  0  0
 28 30  1  0  0  0  0
 28 31  1  0  0  0  0
 32 33  2  0  0  0  0
 32 34  1  0  0  0  0
 34 35  1  0  0  0  0
 35 36  1  0  0  0  0
M  END
$$$$

 OpenBabel12191814062D

 26 27  0  0  0  0  0  0  0  0999 V2000
    2.1434    1.2375    0.0000 C   0  0  0  0  0  0  0  0  0  0  0  0
    1.4289    0.8250    0.0000 C   0  0  0  0  0  0  0  0  0  0  0  0
    1.4289   -0.0000    0.0000 O   0  0  0  0  0  0  0  0  0  0  0  0
    0.7145   -0.4125    0.0000 C   0  0  0  0  0  0  0  0  0  0  0  0
    0.0000    0.0000    0.0000 O   0  0  0  0  0  0  0  0  0  0  0  0
    0.7145   -1.2375    0.0000 C   0  0  0  0  0  0  0  0  0  0  0  0
    1.4289   -1.6500    0.0000 C   0  0  0  0  0  0  0  0  0  0  0  0
    2.1434   -1.2375    0.0000 C   0  0  0  0  0  0  0  0  0  0  0  0
    1.4289   -2.4750    0.0000 N   0  0  0  0  0  0  0  0  0  0  0  0
    0.7145   -2.8875    0.0000 C   0  0  0  0  0  0  0  0  0  0  0  0
    0.7145   -3.7125    0.0000 C   0  0  0  0  0  0  0  0  0  0  0  0
    0.0000   -2.4750    0.0000 C   0  0  0  0  0  0  0  0  0  0  0  0
    0.0000   -1.6500    0.0000 C   0  0  3  0  0  0  0  0  0  0  0  0
   -0.7145   -1.2375    0.0000 C   0  0  0  0  0  0  0  0  0  0  0  0
   -1.4289   -1.6500    0.0000 C   0  0  0  0  0  0  0  0  0  0  0  0
   -2.1434   -1.2375    0.0000 C   0  0  0  0  0  0  0  0  0  0  0  0
   -2.1434   -0.4125    0.0000 C   0  0  0  0  0  0  0  0  0  0  0  0
   -1.4289   -0.0000    0.0000 C   0  0  0  0  0  0  0  0  0  0  0  0
   -0.7145   -0.4125    0.0000 C   0  0  0  0  0  0  0  0  0  0  0  0
   -1.4289    0.8250    0.0000 N   0  3  0  0  0  0  0  0  0  0  0  0
   -2.1434    1.2375    0.0000 O   0  5  0  0  0  0  0  0  0  0  0  0
   -0.7145    1.2375    0.0000 O   0  0  0  0  0  0  0  0  0  0  0  0
   -0.7145   -2.8875    0.0000 C   0  0  0  0  0  0  0  0  0  0  0  0
   -1.4289   -2.4750    0.0000 O   0  0  0  0  0  0  0  0  0  0  0  0
   -0.7145   -3.7125    0.0000 O   0  0  0  0  0  0  0  0  0  0  0  0
   -1.4289   -4.1250    0.0000 C   0  0  0  0  0  0  0  0  0  0  0  0
  1  2  1  0  0  0  0
  2  3  1  0  0  0  0
  3  4  1  0  0  0  0
  4  5  2  0  0  0  0
  4  6  1  0  0  0  0
  6  7  2  0  0  0  0
  6 13  1  0  0  0  0
  7  8  1  0  0  0  0
  7  9  1  0  0  0  0
  9 10  1  0  0  0  0
 10 11  1  0  0  0  0
 10 12  2  0  0  0  0
 12 13  1  0  0  0  0
 12 23  1  0  0  0  0
 13 14  1  0  0  0  0
 14 15  2  0  0  0  0
 14 19  1  0  0  0  0
 15 16  1  0  0  0  0
 16 17  2  0  0  0  0
 17 18  1  0  0  0  0
 18 19  2  0  0  0  0
 18 20  1  0  0  0  0
 20 21  1  0  0  0  0
 20 22  2  0  0  0  0
 23 24  2  0  0  0  0
 23 25  1  0  0  0  0
 25 26  1  0  0  0  0
M  CHG  2  20   1  21  -1
M  END
$$$$

 OpenBabel12191814062D

 47 51  0  0  0  0  0  0  0  0999 V2000
    5.6721   -3.5894    0.0000 C   0  0  0  0  0  0  0  0  0  0  0  0
    4.9576   -4.0019    0.0000 C   0  0  0  0  0  0  0  0  0  0  0  0
    4.9576   -4.8269    0.0000 O   0  0  0  0  0  0  0  0  0  0  0  0
    4.2432   -5.2394    0.0000 C   0  0  0  0  0  0  0  0  0  0  0  0
    3.5287   -4.8269    0.0000 O   0  0  0  0  0  0  0  0  0  0  0  0
    4.2432   -6.0644    0.0000 C   0  0  0  0  0  0  0  0  0  0  0  0
    4.9576   -6.4769    0.0000 C   0  0  0  0  0  0  0  0  0  0  0  0
    5.6721   -6.0644    0.0000 C   0  0  0  0  0  0  0  0  0  0  0  0
    4.9576   -7.3019    0.0000 N   0  0  0  0  0  0  0  0  0  0  0  0
    4.2432   -7.7144    0.0000 C   0  0  0  0  0  0  0  0  0  0  0  0
    4.2432   -8.5394    0.0000 C   0  0  0  0  0  0  0  0  0  0  0  0
    3.5287   -7.3019    0.0000 C   0  0  0  0  0  0  0  0  0  0  0  0
    3.5287   -6.4769    0.0000 C   0  0  3  0  0  0  0  0  0  0  0  0
    2.8142   -6.0644    0.0000 C   0  0  0  0  0  0  0  0  0  0  0  0
    2.0997   -6.4769    0.0000 C   0  0  0  0  0  0  0  0  0  0  0  0
    1.3853   -6.0644    0.0000 C   0  0  0  0  0  0  0  0  0  0  0  0
    1.3853   -5.2394    0.0000 C   0  0  0  0  0  0  0  0  0  0  0  0
    2.0997   -4.8269    0.0000 C   0  0  0  0  0  0  0  0  0  0  0  0
    2.8142   -5.2394    0.0000 C   0  0  0  0  0  0  0  0  0  0  0  0
    2.0997   -4.0019    0.0000 N   0  3  0  0  0  0  0  0  0  0  0  0
    2.8142   -3.5894    0.0000 O   0  5  0  0  0  0  0  0  0  0  0  0
    1.3853   -3.5894    0.0000 O   0  0  0  0  0  0  0  0  0  0  0  0
    2.8142   -7.7144    0.0000 C   0  0  0  0  0  0  0  0  0  0  0  0
    2.0997   -7.3019    0.0000 O   0  0  0  0  0  0  0  0  0  0  0  0
    2.8142   -8.5394    0.0000 O   0  0  0  0  0  0  0  0  0  0  0  0
    2.0997   -8.9519    0.0000 C   0  0  0  0  0  0  0  0  0  0  0  0
    2.0997   -9.7769    0.0000 C   0  0  0  0  0  0  0  0  0  0  0  0
    1.3853  -10.1894    0.0000 C   0  0  0  0  0  0  0  0  0  0  0  0
    1.3853  -11.0144    0.0000 N   0  3  0  0  0  0  0  0  0  0  0  0
    2.1977  -10.8711    0.0000 C   0  0  0  0  0  0  0  0  0  0  0  0
    1.6674  -11.7896    0.0000 C   0  0  0  0  0  0  0  0  0  0  0  0
    1.1371  -12.4216    0.0000 C   0  0  0  0  0  0  0  0  0  0  0  0
    0.3247  -12.2784    0.0000 C   0  0  0  0  0  0  0  0  0  0  0  0
    0.0425  -11.5031    0.0000 C   0  0  0  0  0  0  0  0  0  0  0  0
    0.5728  -10.8711    0.0000 C   0  0  0  0  0  0  0  0  0  0  0  0
    0.4109  -13.0989    0.0000 C   0  0  0  0  0  0  0  0  0  0  0  0
    1.1646  -13.4344    0.0000 C   0  0  0  0  0  0  0  0  0  0  0  0
    1.2508  -14.2549    0.0000 C   0  0  0  0  0  0  0  0  0  0  0  0
    0.5834  -14.7398    0.0000 C   0  0  0  0  0  0  0  0  0  0  0  0
   -0.1703  -14.4043    0.0000 C   0  0  0  0  0  0  0  0  0  0  0  0
   -0.2565  -13.5838    0.0000 C   0  0  0  0  0  0  0  0  0  0  0  0
   -0.4403  -12.5874    0.0000 C   0  0  0  0  0  0  0  0  0  0  0  0
   -0.5551  -13.4044    0.0000 C   0  0  0  0  0  0  0  0  0  0  0  0
   -1.3200  -13.7134    0.0000 C   0  0  0  0  0  0  0  0  0  0  0  0
   -1.9701  -13.2055    0.0000 C   0  0  0  0  0  0  0  0  0  0  0  0
   -1.8553  -12.3886    0.0000 C   0  0  0  0  0  0  0  0  0  0  0  0
   -1.0904  -12.0795    0.0000 C   0  0  0  0  0  0  0  0  0  0  0  0
  1  2  1  0  0  0  0
  2  3  1  0  0  0  0
  3  4  1  0  0  0  0
  4  5  2  0  0  0  0
  4  6  1  0  0  0  0
  6  7  2  0  0  0  0
  6 13  1  0  0  0  0
  7  8  1  0  0  0  0
  7  9  1  0  0  0  0
  9 10  1  0  0  0  0
 10 11  1  0  0  0  0
 10 12  2  0  0  0  0
 12 13  1  0  0  0  0
 12 23  1  0  0  0  0
 13 14  1  0  0  0  0
 14 15  2  0  0  0  0
 14 19  1  0  0  0  0
 15 16  1  0  0  0  0
 16 17  2  0  0  0  0
 17 18  1  0  0  0  0
 18 19  2  0  0  0  0
 18 20  1  0  0  0  0
 20 21  1  0  0  0  0
 20 22  2  0  0  0  0
 23 24  2  0  0  0  0
 23 25  1  0  0  0  0
 25 26  1  0  0  0  0
 26 27  1  0  0  0  0
 27 28  1  0  0  0  0
 28 29  1  0  0  0  0
 29 30  1  0  0  0  0
 29 31  1  0  0  0  0
 29 35  1  0  0  0  0
 31 32  1  0  0  0  0
 32 33  1  0  0  0  0
 33 34  1  0  0  0  0
 33 36  1  0  0  0  0
 33 42  1  0  0  0  0
 34 35  1  0  0  0  0
 36 37  2  0  0  0  0
 36 41  1  0  0  0  0
 37 38  1  0  0  0  0
 38 39  2  0  0  0  0
 39 40  1  0  0  0  0
 40 41  2  0  0  0  0
 42 43  2  0  0  0  0
 42 47  1  0  0  0  0
 43 44  1  0  0  0  0
 44 45  2  0  0  0  0
 45 46  1  0  0  0  0
 46 47  2  0  0  0  0
M  CHG  3  20   1  21  -1  29   1
M  END
$$$$

 OpenBabel12191814062D

 27 29  0  0  0  0  0  0  0  0999 V2000
   -0.2934    2.4750    0.0000 C   0  0  0  0  0  0  0  0  0  0  0  0
    0.4210    2.0625    0.0000 C   0  0  0  0  0  0  0  0  0  0  0  0
    1.1355    2.4750    0.0000 O   0  0  0  0  0  0  0  0  0  0  0  0
    1.8500    2.0625    0.0000 C   0  0  0  0  0  0  0  0  0  0  0  0
    1.3651    1.3951    0.0000 O   0  0  0  0  0  0  0  0  0  0  0  0
    2.5645    2.4750    0.0000 C   0  0  0  0  0  0  0  0  0  0  0  0
    2.5645    3.3000    0.0000 C   0  0  0  0  0  0  0  0  0  0  0  0
    1.8500    3.7125    0.0000 C   0  0  0  0  0  0  0  0  0  0  0  0
    3.2789    3.7125    0.0000 N   0  0  0  0  0  0  0  0  0  0  0  0
    3.9934    3.3000    0.0000 C   0  0  0  0  0  0  0  0  0  0  0  0
    4.7079    3.7125    0.0000 C   0  0  0  0  0  0  0  0  0  0  0  0
    3.9934    2.4750    0.0000 C   0  0  0  0  0  0  0  0  0  0  0  0
    3.2789    2.0625    0.0000 C   0  0  3  0  0  0  0  0  0  0  0  0
    3.2789    1.2375    0.0000 C   0  0  0  0  0  0  0  0  0  0  0  0
    3.9934    0.8250    0.0000 C   0  0  0  0  0  0  0  0  0  0  0  0
    3.9934    0.0000    0.0000 C   0  0  0  0  0  0  0  0  0  0  0  0
    3.2789   -0.4125    0.0000 C   0  0  0  0  0  0  0  0  0  0  0  0
    2.5645    0.0000    0.0000 C   0  0  0  0  0  0  0  0  0  0  0  0
    1.7798   -0.2549    0.0000 N   0  0  0  0  0  0  0  0  0  0  0  0
    1.2949    0.4125    0.0000 O   0  0  0  0  0  0  0  0  0  0  0  0
    1.7798    1.0799    0.0000 N   0  0  0  0  0  0  0  0  0  0  0  0
    2.5645    0.8250    0.0000 C   0  0  0  0  0  0  0  0  0  0  0  0
    4.7079    2.0625    0.0000 C   0  0  0  0  0  0  0  0  0  0  0  0
    4.7079    1.2375    0.0000 O   0  0  0  0  0  0  0  0  0  0  0  0
    5.4223    2.4750    0.0000 O   0  0  0  0  0  0  0  0  0  0  0  0
    6.1368    2.0625    0.0000 C   0  0  0  0  0  0  0  0  0  0  0  0
    6.8513    2.4750    0.0000 C   0  0  0  0  0  0  0  0  0  0  0  0
  1  2  1  0  0  0  0
  2  3  1  0  0  0  0
  3  4  1  0  0  0  0
  4  5  2  0  0  0  0
  4  6  1  0  0  0  0
  6  7  2  0  0  0  0
  6 13  1  0  0  0  0
  7  8  1  0  0  0  0
  7  9  1  0  0  0  0
  9 10  1  0  0  0  0
 10 11  1  0  0  0  0
 10 12  2  0  0  0  0
 12 13  1  0  0  0  0
 12 23  1  0  0  0  0
 13 14  1  0  0  0  0
 14 15  2  0  0  0  0
 14 22  1  0  0  0  0
 15 16  1  0  0  0  0
 16 17  2  0  0  0  0
 17 18  1  0  0  0  0
 18 19  2  0  0  0  0
 18 22  1  0  0  0  0
 19 20  1  0  0  0  0
 20 21  1  0  0  0  0
 21 22  2  0  0  0  0
 23 24  2  0  0  0  0
 23 25  1  0  0  0  0
 25 26  1  0  0  0  0
 26 27  1  0  0  0  0
M  END
$$$$

 OpenBabel12191814062D

 40 42  0  0  0  0  0  0  0  0999 V2000
   -3.5724   -3.7125    0.0000 C   0  0  0  0  0  0  0  0  0  0  0  0
   -2.8579   -4.1250    0.0000 C   0  0  0  0  0  0  0  0  0  0  0  0
   -2.1434   -3.7125    0.0000 O   0  0  0  0  0  0  0  0  0  0  0  0
   -1.4289   -4.1250    0.0000 C   0  0  0  0  0  0  0  0  0  0  0  0
   -1.5195   -4.6119    0.0000 O   0  0  0  0  0  0  0  0  0  0  0  0
   -0.7145   -3.7125    0.0000 C   0  0  0  0  0  0  0  0  0  0  0  0
   -0.7145   -2.8875    0.0000 C   0  0  0  0  0  0  0  0  0  0  0  0
   -1.4289   -2.4750    0.0000 C   0  0  0  0  0  0  0  0  0  0  0  0
    0.0000   -2.4750    0.0000 N   0  0  0  0  0  0  0  0  0  0  0  0
    0.7145   -2.8875    0.0000 C   0  0  0  0  0  0  0  0  0  0  0  0
    1.4289   -2.4750    0.0000 C   0  0  0  0  0  0  0  0  0  0  0  0
    0.7145   -3.7125    0.0000 C   0  0  0  0  0  0  0  0  0  0  0  0
    0.0000   -4.1250    0.0000 C   0  0  3  0  0  0  0  0  0  0  0  0
    0.0000   -4.9500    0.0000 C   0  0  0  0  0  0  0  0  0  0  0  0
    0.7145   -5.3625    0.0000 C   0  0  0  0  0  0  0  0  0  0  0  0
    0.7145   -6.1875    0.0000 C   0  0  0  0  0  0  0  0  0  0  0  0
    0.0000   -6.6000    0.0000 C   0  0  0  0  0  0  0  0  0  0  0  0
   -0.7145   -6.1875    0.0000 C   0  0  0  0  0  0  0  0  0  0  0  0
   -0.7145   -5.3625    0.0000 C   0  0  0  0  0  0  0  0  0  0  0  0
   -1.4289   -4.9500    0.0000 C   0  0  0  0  0  0  0  0  0  0  0  0
   -2.1434   -4.5375    0.0000 F   0  0  0  0  0  0  0  0  0  0  0  0
   -1.0164   -4.2355    0.0000 F   0  0  0  0  0  0  0  0  0  0  0  0
   -1.8414   -5.6645    0.0000 F   0  0  0  0  0  0  0  0  0  0  0  0
    1.4289   -4.1250    0.0000 C   0  0  0  0  0  0  0  0  0  0  0  0
    1.4289   -4.9500    0.0000 O   0  0  0  0  0  0  0  0  0  0  0  0
    2.1434   -3.7125    0.0000 O   0  0  0  0  0  0  0  0  0  0  0  0
    2.8579   -4.1250    0.0000 C   0  0  0  0  0  0  0  0  0  0  0  0
    3.5724   -3.7125    0.0000 C   0  0  0  0  0  0  0  0  0  0  0  0
    4.2868   -4.1250    0.0000 N   0  0  0  0  0  0  0  0  0  0  0  0
    5.0013   -3.7125    0.0000 C   0  0  0  0  0  0  0  0  0  0  0  0
    5.0013   -2.8875    0.0000 O   0  0  0  0  0  0  0  0  0  0  0  0
    5.7158   -4.1250    0.0000 C   0  0  0  0  0  0  0  0  0  0  0  0
    6.4302   -3.7125    0.0000 C   0  0  0  0  0  0  0  0  0  0  0  0
    7.1447   -4.1250    0.0000 C   0  0  0  0  0  0  0  0  0  0  0  0
    7.1447   -4.9500    0.0000 C   0  0  0  0  0  0  0  0  0  0  0  0
    6.4302   -5.3625    0.0000 C   0  0  0  0  0  0  0  0  0  0  0  0
    5.7158   -4.9500    0.0000 C   0  0  0  0  0  0  0  0  0  0  0  0
    7.8592   -5.3625    0.0000 N   0  0  0  0  0  0  0  0  0  0  0  0
    8.5737   -4.9500    0.0000 N   0  3  0  0  0  0  0  0  0  0  0  0
    9.2881   -4.5375    0.0000 N   0  5  0  0  0  0  0  0  0  0  0  0
  1  2  1  0  0  0  0
  2  3  1  0  0  0  0
  3  4  1  0  0  0  0
  4  5  2  0  0  0  0
  4  6  1  0  0  0  0
  6  7  2  0  0  0  0
  6 13  1  0  0  0  0
  7  8  1  0  0  0  0
  7  9  1  0  0  0  0
  9 10  1  0  0  0  0
 10 11  1  0  0  0  0
 10 12  2  0  0  0  0
 12 13  1  0  0  0  0
 12 24  1  0  0  0  0
 13 14  1  0  0  0  0
 14 15  2  0  0  0  0
 14 19  1  0  0  0  0
 15 16  1  0  0  0  0
 16 17  2  0  0  0  0
 17 18  1  0  0  0  0
 18 19  2  0  0  0  0
 19 20  1  0  0  0  0
 20 21  1  0  0  0  0
 20 22  1  0  0  0  0
 20 23  1  0  0  0  0
 24 25  2  0  0  0  0
 24 26  1  0  0  0  0
 26 27  1  0  0  0  0
 27 28  1  0  0  0  0
 28 29  1  0  0  0  0
 29 30  1  0  0  0  0
 30 31  2  0  0  0  0
 30 32  1  0  0  0  0
 32 33  2  0  0  0  0
 32 37  1  0  0  0  0
 33 34  1  0  0  0  0
 34 35  2  0  0  0  0
 35 36  1  0  0  0  0
 35 38  1  0  0  0  0
 36 37  2  0  0  0  0
 38 39  2  0  0  0  0
 39 40  2  0  0  0  0
M  CHG  2  39   1  40  -1
M  END
$$$$

 OpenBabel12191814062D

 28 29  0  0  0  0  0  0  0  0999 V2000
    2.1434   -2.0625    0.0000 C   0  0  0  0  0  0  0  0  0  0  0  0
    1.4289   -2.4750    0.0000 C   0  0  0  0  0  0  0  0  0  0  0  0
    0.7145   -2.0625    0.0000 O   0  0  0  0  0  0  0  0  0  0  0  0
   -0.0000   -2.4750    0.0000 C   0  0  0  0  0  0  0  0  0  0  0  0
   -0.7145   -2.0625    0.0000 O   0  0  0  0  0  0  0  0  0  0  0  0
   -0.0000   -3.3000    0.0000 C   0  0  0  0  0  0  0  0  0  0  0  0
    0.7145   -3.7125    0.0000 C   0  0  0  0  0  0  0  0  0  0  0  0
    1.4289   -3.3000    0.0000 C   0  0  0  0  0  0  0  0  0  0  0  0
    2.1434   -3.7125    0.0000 O   0  0  0  0  0  0  0  0  0  0  0  0
    2.8579   -3.3000    0.0000 C   0  0  0  0  0  0  0  0  0  0  0  0
    3.5724   -3.7125    0.0000 C   0  0  0  0  0  0  0  0  0  0  0  0
    4.2868   -3.3000    0.0000 N   0  0  0  0  0  0  0  0  0  0  0  0
    0.7145   -4.5375    0.0000 N   0  0  0  0  0  0  0  0  0  0  0  0
    0.0000   -4.9500    0.0000 C   0  0  0  0  0  0  0  0  0  0  0  0
    0.0000   -5.7750    0.0000 C   0  0  0  0  0  0  0  0  0  0  0  0
   -0.7145   -4.5375    0.0000 C   0  0  0  0  0  0  0  0  0  0  0  0
   -0.7145   -3.7125    0.0000 C   0  0  3  0  0  0  0  0  0  0  0  0
   -1.4289   -3.3000    0.0000 C   0  0  0  0  0  0  0  0  0  0  0  0
   -2.1434   -3.7125    0.0000 C   0  0  0  0  0  0  0  0  0  0  0  0
   -2.8579   -3.3000    0.0000 C   0  0  0  0  0  0  0  0  0  0  0  0
   -2.8579   -2.4750    0.0000 C   0  0  0  0  0  0  0  0  0  0  0  0
   -2.1434   -2.0625    0.0000 C   0  0  0  0  0  0  0  0  0  0  0  0
   -1.4289   -2.4750    0.0000 C   0  0  0  0  0  0  0  0  0  0  0  0
   -1.0934   -1.7213    0.0000 Cl  0  0  0  0  0  0  0  0  0  0  0  0
   -1.4289   -4.9500    0.0000 C   0  0  0  0  0  0  0  0  0  0  0  0
   -2.1434   -4.5375    0.0000 O   0  0  0  0  0  0  0  0  0  0  0  0
   -1.4289   -5.7750    0.0000 O   0  0  0  0  0  0  0  0  0  0  0  0
   -2.1434   -6.1875    0.0000 C   0  0  0  0  0  0  0  0  0  0  0  0
  1  2  1  0  0  0  0
  2  3  1  0  0  0  0
  3  4  1  0  0  0  0
  4  5  2  0  0  0  0
  4  6  1  0  0  0  0
  6  7  2  0  0  0  0
  6 17  1  0  0  0  0
  7  8  1  0  0  0  0
  7 13  1  0  0  0  0
  8  9  1  0  0  0  0
  9 10  1  0  0  0  0
 10 11  1  0  0  0  0
 11 12  1  0  0  0  0
 13 14  1  0  0  0  0
 14 15  1  0  0  0  0
 14 16  2  0  0  0  0
 16 17  1  0  0  0  0
 16 25  1  0  0  0  0
 17 18  1  0  0  0  0
 18 19  2  0  0  0  0
 18 23  1  0  0  0  0
 19 20  1  0  0  0  0
 20 21  2  0  0  0  0
 21 22  1  0  0  0  0
 22 23  2  0  0  0  0
 23 24  1  0  0  0  0
 25 26  2  0  0  0  0
 25 27  1  0  0  0  0
 27 28  1  0  0  0  0
M  END
$$$$

 OpenBabel12191814062D

 26 30  0  0  0  0  0  0  0  0999 V2000
    5.3839   -3.9139    0.0000 C   0  0  0  0  0  0  0  0  0  0  0  0
    4.5602   -3.8668    0.0000 C   0  0  0  0  0  0  0  0  0  0  0  0
    4.1892   -3.1299    0.0000 O   0  0  0  0  0  0  0  0  0  0  0  0
    3.3656   -3.0828    0.0000 C   0  0  0  0  0  0  0  0  0  0  0  0
    2.9129   -3.7725    0.0000 O   0  0  0  0  0  0  0  0  0  0  0  0
    2.9946   -2.3459    0.0000 C   0  0  0  0  0  0  0  0  0  0  0  0
    2.1709   -2.2988    0.0000 C   0  0  0  0  0  0  0  0  0  0  0  0
    1.7999   -1.5619    0.0000 C   0  0  3  0  0  0  0  0  0  0  0  0
    1.3473   -2.2516    0.0000 C   0  0  0  0  0  0  0  0  0  0  0  0
    0.5236   -2.2045    0.0000 C   0  0  0  0  0  0  0  0  0  0  0  0
    0.9763   -1.5147    0.0000 C   0  0  0  0  0  0  0  0  0  0  0  0
    0.6053   -0.7779    0.0000 C   0  0  0  0  0  0  0  0  0  0  0  0
    1.0579   -0.0881    0.0000 C   0  0  0  0  0  0  0  0  0  0  0  0
    1.8816   -0.1353    0.0000 N   0  0  3  0  0  0  0  0  0  0  0  0
    2.3343    0.5545    0.0000 C   0  0  0  0  0  0  0  0  0  0  0  0
    3.1579    0.5073    0.0000 C   0  0  0  0  0  0  0  0  0  0  0  0
    3.5289   -0.2296    0.0000 C   0  0  0  0  0  0  0  0  0  0  0  0
    3.0762   -0.9193    0.0000 C   0  0  0  0  0  0  0  0  0  0  0  0
    2.2526   -0.8721    0.0000 C   0  0  3  0  0  0  0  0  0  0  0  0
    3.4472   -1.6562    0.0000 N   0  0  0  0  0  0  0  0  0  0  0  0
    4.3640   -1.2710    0.0000 C   0  0  0  0  0  0  0  0  0  0  0  0
    5.0972   -1.6491    0.0000 C   0  0  0  0  0  0  0  0  0  0  0  0
    5.7913   -1.2031    0.0000 C   0  0  0  0  0  0  0  0  0  0  0  0
    5.7521   -0.3790    0.0000 C   0  0  0  0  0  0  0  0  0  0  0  0
    5.0188   -0.0009    0.0000 C   0  0  0  0  0  0  0  0  0  0  0  0
    4.3248   -0.4469    0.0000 C   0  0  0  0  0  0  0  0  0  0  0  0
  1  2  1  0  0  0  0
  2  3  1  0  0  0  0
  3  4  1  0  0  0  0
  4  5  2  0  0  0  0
  4  6  1  0  0  0  0
  6  7  2  0  0  0  0
  6 20  1  0  0  0  0
  7  8  1  0  0  0  0
  8  9  1  0  0  0  0
  8 11  1  0  0  0  0
  8 19  1  0  0  0  0
  9 10  1  0  0  0  0
 11 12  1  0  0  0  0
 12 13  1  0  0  0  0
 13 14  1  0  0  0  0
 14 15  1  0  0  0  0
 14 19  1  0  0  0  0
 15 16  1  0  0  0  0
 16 17  1  0  0  0  0
 17 18  2  0  0  0  0
 17 26  1  0  0  0  0
 18 19  1  0  0  0  0
 18 20  1  0  0  0  0
 20 21  1  0  0  0  0
 21 22  2  0  0  0  0
 21 26  1  0  0  0  0
 22 23  1  0  0  0  0
 23 24  2  0  0  0  0
 24 25  1  0  0  0  0
 25 26  2  0  0  0  0
M  END
$$$$

 OpenBabel12191814062D

 31 32  0  0  0  0  0  0  0  0999 V2000
   -1.4289   -4.9500    0.0000 C   0  0  0  0  0  0  0  0  0  0  0  0
   -1.4289   -4.1250    0.0000 C   0  0  0  0  0  0  0  0  0  0  0  0
   -0.7145   -3.7125    0.0000 O   0  0  0  0  0  0  0  0  0  0  0  0
   -0.7145   -2.8875    0.0000 C   0  0  0  0  0  0  0  0  0  0  0  0
   -1.4289   -2.4750    0.0000 O   0  0  0  0  0  0  0  0  0  0  0  0
    0.0000   -2.4750    0.0000 C   0  0  0  0  0  0  0  0  0  0  0  0
    0.0000   -1.6500    0.0000 O   0  0  0  0  0  0  0  0  0  0  0  0
    0.7145   -1.2375    0.0000 C   0  0  0  0  0  0  0  0  0  0  0  0
    1.4289   -1.6500    0.0000 O   0  0  0  0  0  0  0  0  0  0  0  0
    0.7145   -0.4125    0.0000 C   0  0  0  0  0  0  0  0  0  0  0  0
   -0.0000    0.0000    0.0000 C   0  0  0  0  0  0  0  0  0  0  0  0
   -0.7145   -0.4125    0.0000 C   0  0  0  0  0  0  0  0  0  0  0  0
   -0.0000    0.8250    0.0000 N   0  0  0  0  0  0  0  0  0  0  0  0
    0.7145    1.2375    0.0000 C   0  0  0  0  0  0  0  0  0  0  0  0
    0.7145    2.0625    0.0000 C   0  0  0  0  0  0  0  0  0  0  0  0
    1.4289    0.8250    0.0000 C   0  0  0  0  0  0  0  0  0  0  0  0
    1.4289    0.0000    0.0000 C   0  0  3  0  0  0  0  0  0  0  0  0
    2.1434   -0.4125    0.0000 C   0  0  0  0  0  0  0  0  0  0  0  0
    2.8971   -0.0769    0.0000 C   0  0  0  0  0  0  0  0  0  0  0  0
    3.4491   -0.6900    0.0000 C   0  0  0  0  0  0  0  0  0  0  0  0
    3.0366   -1.4045    0.0000 C   0  0  0  0  0  0  0  0  0  0  0  0
    2.2296   -1.2330    0.0000 S   0  0  0  0  0  0  0  0  0  0  0  0
    2.1434    1.2375    0.0000 C   0  0  0  0  0  0  0  0  0  0  0  0
    2.1434    2.0625    0.0000 O   0  0  0  0  0  0  0  0  0  0  0  0
    2.8579    0.8250    0.0000 O   0  0  0  0  0  0  0  0  0  0  0  0
    3.5724    1.2375    0.0000 C   0  0  0  0  0  0  0  0  0  0  0  0
    4.2868    0.8250    0.0000 C   0  0  0  0  0  0  0  0  0  0  0  0
    4.2868    0.0000    0.0000 O   0  0  0  0  0  0  0  0  0  0  0  0
    5.0013    1.2375    0.0000 O   0  0  0  0  0  0  0  0  0  0  0  0
    5.7158    0.8250    0.0000 C   0  0  0  0  0  0  0  0  0  0  0  0
    6.4302    1.2375    0.0000 C   0  0  0  0  0  0  0  0  0  0  0  0
  1  2  1  0  0  0  0
  2  3  1  0  0  0  0
  3  4  1  0  0  0  0
  4  5  2  0  0  0  0
  4  6  1  0  0  0  0
  6  7  1  0  0  0  0
  7  8  1  0  0  0  0
  8  9  2  0  0  0  0
  8 10  1  0  0  0  0
 10 11  2  0  0  0  0
 10 17  1  0  0  0  0
 11 12  1  0  0  0  0
 11 13  1  0  0  0  0
 13 14  1  0  0  0  0
 14 15  1  0  0  0  0
 14 16  2  0  0  0  0
 16 17  1  0  0  0  0
 16 23  1  0  0  0  0
 17 18  1  0  0  0  0
 18 19  2  0  0  0  0
 18 22  1  0  0  0  0
 19 20  1  0  0  0  0
 20 21  2  0  0  0  0
 21 22  1  0  0  0  0
 23 24  2  0  0  0  0
 23 25  1  0  0  0  0
 25 26  1  0  0  0  0
 26 27  1  0  0  0  0
 27 28  2  0  0  0  0
 27 29  1  0  0  0  0
 29 30  1  0  0  0  0
 30 31  1  0  0  0  0
M  END
$$$$

 OpenBabel12191814062D

 27 30  0  0  0  0  0  0  0  0999 V2000
    2.3747    5.2820    0.0000 C   0  0  0  0  0  0  0  0  0  0  0  0
    3.0892    4.8695    0.0000 C   0  0  0  0  0  0  0  0  0  0  0  0
    3.0892    4.0445    0.0000 O   0  0  0  0  0  0  0  0  0  0  0  0
    3.8037    3.6320    0.0000 C   0  0  0  0  0  0  0  0  0  0  0  0
    4.5181    4.0445    0.0000 O   0  0  0  0  0  0  0  0  0  0  0  0
    3.8037    2.8070    0.0000 N   0  0  0  0  0  0  0  0  0  0  0  0
    4.5181    2.3945    0.0000 C   0  0  0  0  0  0  0  0  0  0  0  0
    4.5181    1.5695    0.0000 C   0  0  0  0  0  0  0  0  0  0  0  0
    3.8037    1.1570    0.0000 C   0  0  0  0  0  0  0  0  0  0  0  0
    3.0892    1.5695    0.0000 C   0  0  0  0  0  0  0  0  0  0  0  0
    3.0892    2.3945    0.0000 C   0  0  0  0  0  0  0  0  0  0  0  0
    3.8037    0.3320    0.0000 C   0  0  0  0  0  0  0  0  0  0  0  0
    4.5470   -0.0260    0.0000 C   0  0  0  0  0  0  0  0  0  0  0  0
    5.1517    0.5352    0.0000 C   0  0  0  0  0  0  0  0  0  0  0  0
    5.9401    0.2920    0.0000 C   0  0  0  0  0  0  0  0  0  0  0  0
    6.1237   -0.5123    0.0000 C   0  0  0  0  0  0  0  0  0  0  0  0
    6.9120   -0.7555    0.0000 Cl  0  0  0  0  0  0  0  0  0  0  0  0
    5.5189   -1.0735    0.0000 C   0  0  0  0  0  0  0  0  0  0  0  0
    4.7305   -0.8303    0.0000 C   0  0  0  0  0  0  0  0  0  0  0  0
    4.2162   -1.4753    0.0000 C   0  0  0  0  0  0  0  0  0  0  0  0
    3.3912   -1.4753    0.0000 C   0  0  0  0  0  0  0  0  0  0  0  0
    2.8768   -0.8303    0.0000 C   0  0  0  0  0  0  0  0  0  0  0  0
    2.0884   -1.0735    0.0000 C   0  0  0  0  0  0  0  0  0  0  0  0
    1.4837   -0.5123    0.0000 C   0  0  0  0  0  0  0  0  0  0  0  0
    1.6673    0.2920    0.0000 C   0  0  0  0  0  0  0  0  0  0  0  0
    2.4556    0.5352    0.0000 N   0  0  0  0  0  0  0  0  0  0  0  0
    3.0604   -0.0260    0.0000 C   0  0  0  0  0  0  0  0  0  0  0  0
  1  2  1  0  0  0  0
  2  3  1  0  0  0  0
  3  4  1  0  0  0  0
  4  5  2  0  0  0  0
  4  6  1  0  0  0  0
  6  7  1  0  0  0  0
  6 11  1  0  0  0  0
  7  8  1  0  0  0  0
  8  9  1  0  0  0  0
  9 10  1  0  0  0  0
  9 12  2  0  0  0  0
 10 11  1  0  0  0  0
 12 13  1  0  0  0  0
 12 27  1  0  0  0  0
 13 14  2  0  0  0  0
 13 19  1  0  0  0  0
 14 15  1  0  0  0  0
 15 16  2  0  0  0  0
 16 17  1  0  0  0  0
 16 18  1  0  0  0  0
 18 19  2  0  0  0  0
 19 20  1  0  0  0  0
 20 21  1  0  0  0  0
 21 22  1  0  0  0  0
 22 23  2  0  0  0  0
 22 27  1  0  0  0  0
 23 24  1  0  0  0  0
 24 25  2  0  0  0  0
 25 26  1  0  0  0  0
 26 27  2  0  0  0  0
M  END
$$$$

 OpenBabel12191814062D

 38 42  0  0  0  0  0  0  0  0999 V2000
   -5.4890   -5.9451    0.0000 C   0  0  0  0  0  0  0  0  0  0  0  0
   -5.1535   -5.1915    0.0000 C   0  0  0  0  0  0  0  0  0  0  0  0
   -4.3330   -5.1052    0.0000 O   0  0  0  0  0  0  0  0  0  0  0  0
   -3.9974   -4.3516    0.0000 C   0  0  0  0  0  0  0  0  0  0  0  0
   -4.4824   -3.6841    0.0000 O   0  0  0  0  0  0  0  0  0  0  0  0
   -3.1770   -4.2653    0.0000 N   0  0  0  0  0  0  0  0  0  0  0  0
   -2.8414   -3.5116    0.0000 C   0  0  0  0  0  0  0  0  0  0  0  0
   -2.0209   -3.4254    0.0000 C   0  0  0  0  0  0  0  0  0  0  0  0
   -1.5360   -4.0928    0.0000 N   0  0  0  0  0  0  0  0  0  0  0  0
   -1.8716   -4.8465    0.0000 C   0  0  0  0  0  0  0  0  0  0  0  0
   -2.6920   -4.9328    0.0000 C   0  0  0  0  0  0  0  0  0  0  0  0
   -0.7155   -4.0066    0.0000 C   0  0  0  0  0  0  0  0  0  0  0  0
   -0.3800   -3.2529    0.0000 C   0  0  0  0  0  0  0  0  0  0  0  0
    0.4405   -3.1667    0.0000 C   0  0  0  0  0  0  0  0  0  0  0  0
    0.9254   -3.8341    0.0000 C   0  0  0  0  0  0  0  0  0  0  0  0
    1.7459   -3.7479    0.0000 O   0  0  0  0  0  0  0  0  0  0  0  0
    2.0815   -2.9942    0.0000 C   0  0  0  0  0  0  0  0  0  0  0  0
    1.5966   -2.3268    0.0000 C   0  0  3  0  0  0  0  0  0  0  0  0
    0.7716   -2.3268    0.0000 C   0  0  0  0  0  0  0  0  0  0  0  0
    0.5166   -1.5422    0.0000 O   0  0  0  0  0  0  0  0  0  0  0  0
    1.1841   -1.0572    0.0000 C   0  0  3  0  0  0  0  0  0  0  0  0
    0.6320   -0.4441    0.0000 C   0  0  0  0  0  0  0  0  0  0  0  0
   -0.1749   -0.6157    0.0000 N   0  0  0  0  0  0  0  0  0  0  0  0
   -0.7880   -0.0636    0.0000 C   0  0  0  0  0  0  0  0  0  0  0  0
   -1.5025   -0.4761    0.0000 C   0  0  0  0  0  0  0  0  0  0  0  0
   -1.3310   -1.2831    0.0000 N   0  0  0  0  0  0  0  0  0  0  0  0
   -0.5105   -1.3694    0.0000 C   0  0  0  0  0  0  0  0  0  0  0  0
    1.8515   -1.5422    0.0000 O   0  0  0  0  0  0  0  0  0  0  0  0
    1.7361   -0.4441    0.0000 C   0  0  0  0  0  0  0  0  0  0  0  0
    1.4812    0.3405    0.0000 C   0  0  0  0  0  0  0  0  0  0  0  0
    2.0332    0.9536    0.0000 C   0  0  0  0  0  0  0  0  0  0  0  0
    2.8402    0.7820    0.0000 C   0  0  0  0  0  0  0  0  0  0  0  0
    3.3922    1.3951    0.0000 Cl  0  0  0  0  0  0  0  0  0  0  0  0
    3.0951   -0.0026    0.0000 C   0  0  0  0  0  0  0  0  0  0  0  0
    2.5431   -0.6157    0.0000 C   0  0  0  0  0  0  0  0  0  0  0  0
    2.7980   -1.4003    0.0000 Cl  0  0  0  0  0  0  0  0  0  0  0  0
    0.5899   -4.5878    0.0000 C   0  0  0  0  0  0  0  0  0  0  0  0
   -0.2306   -4.6740    0.0000 C   0  0  0  0  0  0  0  0  0  0  0  0
  1  2  1  0  0  0  0
  2  3  1  0  0  0  0
  3  4  1  0  0  0  0
  4  5  2  0  0  0  0
  4  6  1  0  0  0  0
  6  7  1  0  0  0  0
  6 11  1  0  0  0  0
  7  8  1  0  0  0  0
  8  9  1  0  0  0  0
  9 10  1  0  0  0  0
  9 12  1  0  0  0  0
 10 11  1  0  0  0  0
 12 13  2  0  0  0  0
 12 38  1  0  0  0  0
 13 14  1  0  0  0  0
 14 15  2  0  0  0  0
 15 16  1  0  0  0  0
 15 37  1  0  0  0  0
 16 17  1  0  0  0  0
 17 18  1  0  0  0  0
 18 19  1  0  0  0  0
 18 28  1  0  0  0  0
 19 20  1  0  0  0  0
 20 21  1  0  0  0  0
 21 22  1  0  0  0  0
 21 28  1  0  0  0  0
 21 29  1  0  0  0  0
 22 23  1  0  0  0  0
 23 24  1  0  0  0  0
 23 27  1  0  0  0  0
 24 25  2  0  0  0  0
 25 26  1  0  0  0  0
 26 27  2  0  0  0  0
 29 30  2  0  0  0  0
 29 35  1  0  0  0  0
 30 31  1  0  0  0  0
 31 32  2  0  0  0  0
 32 33  1  0  0  0  0
 32 34  1  0  0  0  0
 34 35  2  0  0  0  0
 35 36  1  0  0  0  0
 37 38  2  0  0  0  0
M  END
$$$$

 OpenBabel12191814062D

 32 34  0  0  0  0  0  0  0  0999 V2000
   -1.1270   -1.3480    0.0000 C   0  0  0  0  0  0  0  0  0  0  0  0
   -1.5395   -2.0625    0.0000 C   0  0  0  0  0  0  0  0  0  0  0  0
   -1.1270   -2.7770    0.0000 O   0  0  0  0  0  0  0  0  0  0  0  0
   -1.5395   -3.4914    0.0000 C   0  0  0  0  0  0  0  0  0  0  0  0
   -0.8250   -3.9039    0.0000 C   0  0  0  0  0  0  0  0  0  0  0  0
   -0.8250   -4.7289    0.0000 O   0  0  0  0  0  0  0  0  0  0  0  0
   -0.1105   -3.4914    0.0000 N   0  0  0  0  0  0  0  0  0  0  0  0
    0.6039   -3.9039    0.0000 C   0  0  0  0  0  0  0  0  0  0  0  0
   -0.1105   -2.6664    0.0000 C   0  0  0  0  0  0  0  0  0  0  0  0
    0.6039   -2.2539    0.0000 C   0  0  0  0  0  0  0  0  0  0  0  0
    1.3184   -2.6664    0.0000 N   0  0  0  0  0  0  0  0  0  0  0  0
    1.3184   -3.4914    0.0000 C   0  0  0  0  0  0  0  0  0  0  0  0
    2.0329   -2.2539    0.0000 C   0  0  0  0  0  0  0  0  0  0  0  0
    2.7474   -2.6664    0.0000 C   0  0  0  0  0  0  0  0  0  0  0  0
    3.4618   -2.2539    0.0000 C   0  0  0  0  0  0  0  0  0  0  0  0
    3.4618   -1.4289    0.0000 C   0  0  0  0  0  0  0  0  0  0  0  0
    4.1763   -1.0164    0.0000 C   0  0  0  0  0  0  0  0  0  0  0  0
    4.8908   -1.4289    0.0000 C   0  0  0  0  0  0  0  0  0  0  0  0
    4.8908   -2.2539    0.0000 C   0  0  0  0  0  0  0  0  0  0  0  0
    4.1763   -2.6664    0.0000 C   0  0  0  0  0  0  0  0  0  0  0  0
   -2.2539   -3.0789    0.0000 C   0  0  0  0  0  0  0  0  0  0  0  0
   -2.9684   -3.4914    0.0000 C   0  0  0  0  0  0  0  0  0  0  0  0
   -3.6829   -3.0789    0.0000 C   0  0  0  0  0  0  0  0  0  0  0  0
   -3.6829   -2.2539    0.0000 C   0  0  0  0  0  0  0  0  0  0  0  0
   -2.9684   -1.8414    0.0000 C   0  0  0  0  0  0  0  0  0  0  0  0
   -2.2539   -2.2539    0.0000 C   0  0  0  0  0  0  0  0  0  0  0  0
   -1.9520   -4.2059    0.0000 C   0  0  0  0  0  0  0  0  0  0  0  0
   -1.5395   -4.9204    0.0000 C   0  0  0  0  0  0  0  0  0  0  0  0
   -1.9520   -5.6349    0.0000 C   0  0  0  0  0  0  0  0  0  0  0  0
   -2.7770   -5.6349    0.0000 C   0  0  0  0  0  0  0  0  0  0  0  0
   -3.1895   -4.9204    0.0000 C   0  0  0  0  0  0  0  0  0  0  0  0
   -2.7770   -4.2059    0.0000 C   0  0  0  0  0  0  0  0  0  0  0  0
  1  2  1  0  0  0  0
  2  3  1  0  0  0  0
  3  4  1  0  0  0  0
  4  5  1  0  0  0  0
  4 21  1  0  0  0  0
  4 27  1  0  0  0  0
  5  6  2  0  0  0  0
  5  7  1  0  0  0  0
  7  8  1  0  0  0  0
  7  9  1  0  0  0  0
  9 10  1  0  0  0  0
 10 11  1  0  0  0  0
 11 12  1  0  0  0  0
 11 13  1  0  0  0  0
 13 14  1  0  0  0  0
 14 15  1  0  0  0  0
 15 16  2  0  0  0  0
 15 20  1  0  0  0  0
 16 17  1  0  0  0  0
 17 18  2  0  0  0  0
 18 19  1  0  0  0  0
 19 20  2  0  0  0  0
 21 22  2  0  0  0  0
 21 26  1  0  0  0  0
 22 23  1  0  0  0  0
 23 24  2  0  0  0  0
 24 25  1  0  0  0  0
 25 26  2  0  0  0  0
 27 28  2  0  0  0  0
 27 32  1  0  0  0  0
 28 29  1  0  0  0  0
 29 30  2  0  0  0  0
 30 31  1  0  0  0  0
 31 32  2  0  0  0  0
M  END
$$$$

 OpenBabel12191814062D

 28 30  0  0  0  0  0  0  0  0999 V2000
   -0.7145   -2.8875    0.0000 C   0  0  0  0  0  0  0  0  0  0  0  0
    0.0000   -2.4750    0.0000 C   0  0  0  0  0  0  0  0  0  0  0  0
    0.0000   -1.6500    0.0000 O   0  0  0  0  0  0  0  0  0  0  0  0
    0.7145   -1.2375    0.0000 C   0  0  3  0  0  0  0  0  0  0  0  0
    1.4289   -1.6500    0.0000 C   0  0  0  0  0  0  0  0  0  0  0  0
    1.4289   -2.4750    0.0000 N   0  0  0  0  0  0  0  0  0  0  0  0
    2.1434   -2.8875    0.0000 C   0  0  0  0  0  0  0  0  0  0  0  0
    2.1434   -3.7125    0.0000 C   0  0  0  0  0  0  0  0  0  0  0  0
    1.4289   -4.1250    0.0000 N   0  0  0  0  0  0  0  0  0  0  0  0
    1.4289   -4.9500    0.0000 C   0  0  0  0  0  0  0  0  0  0  0  0
    0.7145   -5.3625    0.0000 C   0  0  3  0  0  0  0  0  0  0  0  0
    0.0000   -4.9500    0.0000 C   0  0  0  0  0  0  0  0  0  0  0  0
    0.7145   -6.1875    0.0000 C   0  0  0  0  0  0  0  0  0  0  0  0
    1.4289   -6.6000    0.0000 O   0  0  0  0  0  0  0  0  0  0  0  0
    0.0000   -6.6000    0.0000 C   0  0  0  0  0  0  0  0  0  0  0  0
    0.0000   -7.4250    0.0000 C   0  0  0  0  0  0  0  0  0  0  0  0
   -0.7145   -7.8375    0.0000 C   0  0  0  0  0  0  0  0  0  0  0  0
   -1.4289   -7.4250    0.0000 C   0  0  0  0  0  0  0  0  0  0  0  0
   -1.4289   -6.6000    0.0000 C   0  0  0  0  0  0  0  0  0  0  0  0
   -0.7145   -6.1875    0.0000 C   0  0  0  0  0  0  0  0  0  0  0  0
    0.7145   -3.7125    0.0000 C   0  0  0  0  0  0  0  0  0  0  0  0
    0.7145   -2.8875    0.0000 C   0  0  0  0  0  0  0  0  0  0  0  0
    0.7145   -0.4125    0.0000 C   0  0  0  0  0  0  0  0  0  0  0  0
    0.0000    0.0000    0.0000 C   0  0  0  0  0  0  0  0  0  0  0  0
    0.0000    0.8250    0.0000 C   0  0  0  0  0  0  0  0  0  0  0  0
    0.7145    1.2375    0.0000 C   0  0  0  0  0  0  0  0  0  0  0  0
    1.4289    0.8250    0.0000 C   0  0  0  0  0  0  0  0  0  0  0  0
    1.4289   -0.0000    0.0000 C   0  0  0  0  0  0  0  0  0  0  0  0
  1  2  1  0  0  0  0
  2  3  1  0  0  0  0
  3  4  1  0  0  0  0
  4  5  1  0  0  0  0
  4 23  1  0  0  0  0
  5  6  1  0  0  0  0
  6  7  1  0  0  0  0
  6 22  1  0  0  0  0
  7  8  1  0  0  0  0
  8  9  1  0  0  0  0
  9 10  1  0  0  0  0
  9 21  1  0  0  0  0
 10 11  1  0  0  0  0
 11 12  1  0  0  0  0
 11 13  1  0  0  0  0
 13 14  2  0  0  0  0
 13 15  1  0  0  0  0
 15 16  2  0  0  0  0
 15 20  1  0  0  0  0
 16 17  1  0  0  0  0
 17 18  2  0  0  0  0
 18 19  1  0  0  0  0
 19 20  2  0  0  0  0
 21 22  1  0  0  0  0
 23 24  2  0  0  0  0
 23 28  1  0  0  0  0
 24 25  1  0  0  0  0
 25 26  2  0  0  0  0
 26 27  1  0  0  0  0
 27 28  2  0  0  0  0
M  END
$$$$

 OpenBabel12191814062D

 41 46  0  0  0  0  0  0  0  0999 V2000
   -2.8579   -0.0000    0.0000 C   0  0  0  0  0  0  0  0  0  0  0  0
   -2.1434   -0.4125    0.0000 C   0  0  0  0  0  0  0  0  0  0  0  0
   -1.4289   -0.0000    0.0000 O   0  0  0  0  0  0  0  0  0  0  0  0
   -0.7145   -0.4125    0.0000 C   0  0  0  0  0  0  0  0  0  0  0  0
    0.0000   -0.0000    0.0000 C   0  0  0  0  0  0  0  0  0  0  0  0
    0.7145   -0.4125    0.0000 C   0  0  0  0  0  0  0  0  0  0  0  0
    0.7145   -1.2375    0.0000 C   0  0  0  0  0  0  0  0  0  0  0  0
    1.4289   -1.6500    0.0000 C   0  0  0  0  0  0  0  0  0  0  0  0
    1.4289   -2.4750    0.0000 C   0  0  0  0  0  0  0  0  0  0  0  0
    0.7145   -2.8875    0.0000 C   0  0  0  0  0  0  0  0  0  0  0  0
    0.0000   -2.4750    0.0000 C   0  0  0  0  0  0  0  0  0  0  0  0
    0.0000   -1.6500    0.0000 C   0  0  0  0  0  0  0  0  0  0  0  0
    0.7145   -3.7125    0.0000 C   0  0  0  0  0  0  0  0  0  0  0  0
    1.3819   -4.1974    0.0000 N   0  0  0  0  0  0  0  0  0  0  0  0
    1.1270   -4.9820    0.0000 C   0  0  0  0  0  0  0  0  0  0  0  0
    0.3020   -4.9820    0.0000 C   0  0  0  0  0  0  0  0  0  0  0  0
    0.0470   -4.1974    0.0000 N   0  0  0  0  0  0  0  0  0  0  0  0
   -0.1830   -5.6495    0.0000 C   0  0  0  0  0  0  0  0  0  0  0  0
    0.1526   -6.4032    0.0000 C   0  0  0  0  0  0  0  0  0  0  0  0
   -0.3323   -7.0706    0.0000 C   0  0  0  0  0  0  0  0  0  0  0  0
   -1.1528   -6.9844    0.0000 C   0  0  0  0  0  0  0  0  0  0  0  0
   -1.4884   -6.2307    0.0000 C   0  0  0  0  0  0  0  0  0  0  0  0
   -1.0034   -5.5632    0.0000 C   0  0  0  0  0  0  0  0  0  0  0  0
   -1.6377   -7.6518    0.0000 N   0  0  0  0  0  0  0  0  0  0  0  0
   -1.3022   -8.4055    0.0000 C   0  0  0  0  0  0  0  0  0  0  0  0
   -1.7871   -9.0729    0.0000 C   0  0  0  0  0  0  0  0  0  0  0  0
   -2.6076   -8.9867    0.0000 O   0  0  0  0  0  0  0  0  0  0  0  0
   -2.9431   -8.2330    0.0000 C   0  0  0  0  0  0  0  0  0  0  0  0
   -2.4582   -7.5656    0.0000 C   0  0  0  0  0  0  0  0  0  0  0  0
    1.6119   -5.6495    0.0000 C   0  0  0  0  0  0  0  0  0  0  0  0
    2.4324   -5.5632    0.0000 C   0  0  0  0  0  0  0  0  0  0  0  0
    2.9173   -6.2307    0.0000 C   0  0  0  0  0  0  0  0  0  0  0  0
    2.5817   -6.9844    0.0000 C   0  0  0  0  0  0  0  0  0  0  0  0
    1.7613   -7.0706    0.0000 C   0  0  0  0  0  0  0  0  0  0  0  0
    1.2763   -6.4032    0.0000 C   0  0  0  0  0  0  0  0  0  0  0  0
    3.0667   -7.6518    0.0000 N   0  0  0  0  0  0  0  0  0  0  0  0
    3.8871   -7.5656    0.0000 C   0  0  0  0  0  0  0  0  0  0  0  0
    4.3721   -8.2330    0.0000 C   0  0  0  0  0  0  0  0  0  0  0  0
    4.0365   -8.9867    0.0000 O   0  0  0  0  0  0  0  0  0  0  0  0
    3.2160   -9.0729    0.0000 C   0  0  0  0  0  0  0  0  0  0  0  0
    2.7311   -8.4055    0.0000 C   0  0  0  0  0  0  0  0  0  0  0  0
  1  2  1  0  0  0  0
  2  3  1  0  0  0  0
  3  4  1  0  0  0  0
  4  5  1  0  0  0  0
  5  6  2  0  0  0  0
  6  7  1  0  0  0  0
  7  8  2  0  0  0  0
  7 12  1  0  0  0  0
  8  9  1  0  0  0  0
  9 10  2  0  0  0  0
 10 11  1  0  0  0  0
 10 13  1  0  0  0  0
 11 12  2  0  0  0  0
 13 14  1  0  0  0  0
 13 17  2  0  0  0  0
 14 15  1  0  0  0  0
 15 16  2  0  0  0  0
 15 30  1  0  0  0  0
 16 17  1  0  0  0  0
 16 18  1  0  0  0  0
 18 19  2  0  0  0  0
 18 23  1  0  0  0  0
 19 20  1  0  0  0  0
 20 21  2  0  0  0  0
 21 22  1  0  0  0  0
 21 24  1  0  0  0  0
 22 23  2  0  0  0  0
 24 25  1  0  0  0  0
 24 29  1  0  0  0  0
 25 26  1  0  0  0  0
 26 27  1  0  0  0  0
 27 28  1  0  0  0  0
 28 29  1  0  0  0  0
 30 31  2  0  0  0  0
 30 35  1  0  0  0  0
 31 32  1  0  0  0  0
 32 33  2  0  0  0  0
 33 34  1  0  0  0  0
 33 36  1  0  0  0  0
 34 35  2  0  0  0  0
 36 37  1  0  0  0  0
 36 41  1  0  0  0  0
 37 38  1  0  0  0  0
 38 39  1  0  0  0  0
 39 40  1  0  0  0  0
 40 41  1  0  0  0  0
M  END
$$$$

 OpenBabel12191814062D

 35 38  0  0  0  0  0  0  0  0999 V2000
   -1.4289    4.9500    0.0000 C   0  0  0  0  0  0  0  0  0  0  0  0
   -0.7145    4.5375    0.0000 C   0  0  0  0  0  0  0  0  0  0  0  0
   -0.7145    3.7125    0.0000 O   0  0  0  0  0  0  0  0  0  0  0  0
    0.0000    3.3000    0.0000 C   0  0  0  0  0  0  0  0  0  0  0  0
    0.0000    2.4750    0.0000 C   0  0  0  0  0  0  0  0  0  0  0  0
    0.7145    2.0625    0.0000 C   0  0  0  0  0  0  0  0  0  0  0  0
    0.7145    1.2375    0.0000 C   0  0  0  0  0  0  0  0  0  0  0  0
    1.4289    0.8250    0.0000 C   0  0  0  0  0  0  0  0  0  0  0  0
    1.4289   -0.0000    0.0000 C   0  0  0  0  0  0  0  0  0  0  0  0
    0.7145   -0.4125    0.0000 C   0  0  0  0  0  0  0  0  0  0  0  0
    0.0000   -0.0000    0.0000 C   0  0  0  0  0  0  0  0  0  0  0  0
    0.0000    0.8250    0.0000 C   0  0  0  0  0  0  0  0  0  0  0  0
    0.7145   -1.2375    0.0000 C   0  0  0  0  0  0  0  0  0  0  0  0
    1.3819   -1.7224    0.0000 N   0  0  0  0  0  0  0  0  0  0  0  0
    1.1270   -2.5070    0.0000 C   0  0  0  0  0  0  0  0  0  0  0  0
    0.3020   -2.5070    0.0000 C   0  0  0  0  0  0  0  0  0  0  0  0
    0.0470   -1.7224    0.0000 N   0  0  0  0  0  0  0  0  0  0  0  0
   -0.1830   -3.1745    0.0000 C   0  0  0  0  0  0  0  0  0  0  0  0
    0.1526   -3.9282    0.0000 C   0  0  0  0  0  0  0  0  0  0  0  0
   -0.3323   -4.5956    0.0000 C   0  0  0  0  0  0  0  0  0  0  0  0
   -1.1528   -4.5094    0.0000 C   0  0  0  0  0  0  0  0  0  0  0  0
   -1.4884   -3.7557    0.0000 C   0  0  0  0  0  0  0  0  0  0  0  0
   -1.0034   -3.0882    0.0000 C   0  0  0  0  0  0  0  0  0  0  0  0
   -1.6377   -5.1768    0.0000 N   0  0  0  0  0  0  0  0  0  0  0  0
   -1.3022   -5.9305    0.0000 C   0  0  0  0  0  0  0  0  0  0  0  0
   -2.4582   -5.0906    0.0000 C   0  0  0  0  0  0  0  0  0  0  0  0
    1.6119   -3.1745    0.0000 C   0  0  0  0  0  0  0  0  0  0  0  0
    2.4324   -3.0882    0.0000 C   0  0  0  0  0  0  0  0  0  0  0  0
    2.9173   -3.7557    0.0000 C   0  0  0  0  0  0  0  0  0  0  0  0
    2.5817   -4.5094    0.0000 C   0  0  0  0  0  0  0  0  0  0  0  0
    1.7613   -4.5956    0.0000 C   0  0  0  0  0  0  0  0  0  0  0  0
    1.2763   -3.9282    0.0000 C   0  0  0  0  0  0  0  0  0  0  0  0
    3.0667   -5.1768    0.0000 N   0  0  0  0  0  0  0  0  0  0  0  0
    2.7311   -5.9305    0.0000 C   0  0  0  0  0  0  0  0  0  0  0  0
    3.8871   -5.0906    0.0000 C   0  0  0  0  0  0  0  0  0  0  0  0
  1  2  1  0  0  0  0
  2  3  1  0  0  0  0
  3  4  1  0  0  0  0
  4  5  1  0  0  0  0
  5  6  2  0  0  0  0
  6  7  1  0  0  0  0
  7  8  2  0  0  0  0
  7 12  1  0  0  0  0
  8  9  1  0  0  0  0
  9 10  2  0  0  0  0
 10 11  1  0  0  0  0
 10 13  1  0  0  0  0
 11 12  2  0  0  0  0
 13 14  1  0  0  0  0
 13 17  2  0  0  0  0
 14 15  1  0  0  0  0
 15 16  2  0  0  0  0
 15 27  1  0  0  0  0
 16 17  1  0  0  0  0
 16 18  1  0  0  0  0
 18 19  2  0  0  0  0
 18 23  1  0  0  0  0
 19 20  1  0  0  0  0
 20 21  2  0  0  0  0
 21 22  1  0  0  0  0
 21 24  1  0  0  0  0
 22 23  2  0  0  0  0
 24 25  1  0  0  0  0
 24 26  1  0  0  0  0
 27 28  2  0  0  0  0
 27 32  1  0  0  0  0
 28 29  1  0  0  0  0
 29 30  2  0  0  0  0
 30 31  1  0  0  0  0
 30 33  1  0  0  0  0
 31 32  2  0  0  0  0
 33 34  1  0  0  0  0
 33 35  1  0  0  0  0
M  END
$$$$

 OpenBabel12191814062D

 34 37  0  0  0  0  0  0  0  0999 V2000
   -1.4289    4.9500    0.0000 C   0  0  0  0  0  0  0  0  0  0  0  0
   -0.7145    4.5375    0.0000 C   0  0  0  0  0  0  0  0  0  0  0  0
   -0.7145    3.7125    0.0000 O   0  0  0  0  0  0  0  0  0  0  0  0
    0.0000    3.3000    0.0000 C   0  0  0  0  0  0  0  0  0  0  0  0
    0.0000    2.4750    0.0000 C   0  0  0  0  0  0  0  0  0  0  0  0
    0.7145    2.0625    0.0000 C   0  0  0  0  0  0  0  0  0  0  0  0
    0.7145    1.2375    0.0000 C   0  0  0  0  0  0  0  0  0  0  0  0
    1.4289    0.8250    0.0000 C   0  0  0  0  0  0  0  0  0  0  0  0
    1.4289   -0.0000    0.0000 C   0  0  0  0  0  0  0  0  0  0  0  0
    0.7145   -0.4125    0.0000 C   0  0  0  0  0  0  0  0  0  0  0  0
    0.0000   -0.0000    0.0000 C   0  0  0  0  0  0  0  0  0  0  0  0
    0.0000    0.8250    0.0000 C   0  0  0  0  0  0  0  0  0  0  0  0
    0.7145   -1.2375    0.0000 C   0  0  0  0  0  0  0  0  0  0  0  0
    1.3819   -1.7224    0.0000 N   0  0  0  0  0  0  0  0  0  0  0  0
    1.1270   -2.5070    0.0000 C   0  0  0  0  0  0  0  0  0  0  0  0
    0.3020   -2.5070    0.0000 C   0  0  0  0  0  0  0  0  0  0  0  0
    0.0470   -1.7224    0.0000 N   0  0  0  0  0  0  0  0  0  0  0  0
   -0.1830   -3.1745    0.0000 C   0  0  0  0  0  0  0  0  0  0  0  0
    0.1526   -3.9282    0.0000 C   0  0  0  0  0  0  0  0  0  0  0  0
   -0.3323   -4.5956    0.0000 C   0  0  0  0  0  0  0  0  0  0  0  0
   -1.1528   -4.5094    0.0000 C   0  0  0  0  0  0  0  0  0  0  0  0
   -1.4884   -3.7557    0.0000 C   0  0  0  0  0  0  0  0  0  0  0  0
   -1.0034   -3.0882    0.0000 C   0  0  0  0  0  0  0  0  0  0  0  0
   -1.6377   -5.1768    0.0000 N   0  0  0  0  0  0  0  0  0  0  0  0
   -1.3022   -5.9305    0.0000 C   0  0  0  0  0  0  0  0  0  0  0  0
   -2.4582   -5.0906    0.0000 C   0  0  0  0  0  0  0  0  0  0  0  0
    1.6119   -3.1745    0.0000 C   0  0  0  0  0  0  0  0  0  0  0  0
    2.4324   -3.0882    0.0000 C   0  0  0  0  0  0  0  0  0  0  0  0
    2.9173   -3.7557    0.0000 C   0  0  0  0  0  0  0  0  0  0  0  0
    2.5817   -4.5094    0.0000 C   0  0  0  0  0  0  0  0  0  0  0  0
    3.0667   -5.1768    0.0000 N   0  0  0  0  0  0  0  0  0  0  0  0
    2.7311   -5.9305    0.0000 C   0  0  0  0  0  0  0  0  0  0  0  0
    1.7613   -4.5956    0.0000 C   0  0  0  0  0  0  0  0  0  0  0  0
    1.2763   -3.9282    0.0000 C   0  0  0  0  0  0  0  0  0  0  0  0
  1  2  1  0  0  0  0
  2  3  1  0  0  0  0
  3  4  1  0  0  0  0
  4  5  1  0  0  0  0
  5  6  2  0  0  0  0
  6  7  1  0  0  0  0
  7  8  2  0  0  0  0
  7 12  1  0  0  0  0
  8  9  1  0  0  0  0
  9 10  2  0  0  0  0
 10 11  1  0  0  0  0
 10 13  1  0  0  0  0
 11 12  2  0  0  0  0
 13 14  1  0  0  0  0
 13 17  2  0  0  0  0
 14 15  1  0  0  0  0
 15 16  2  0  0  0  0
 15 27  1  0  0  0  0
 16 17  1  0  0  0  0
 16 18  1  0  0  0  0
 18 19  2  0  0  0  0
 18 23  1  0  0  0  0
 19 20  1  0  0  0  0
 20 21  2  0  0  0  0
 21 22  1  0  0  0  0
 21 24  1  0  0  0  0
 22 23  2  0  0  0  0
 24 25  1  0  0  0  0
 24 26  1  0  0  0  0
 27 28  2  0  0  0  0
 27 34  1  0  0  0  0
 28 29  1  0  0  0  0
 29 30  2  0  0  0  0
 30 31  1  0  0  0  0
 30 33  1  0  0  0  0
 31 32  1  0  0  0  0
 33 34  2  0  0  0  0
M  END
$$$$

 OpenBabel12191814062D

 39 42  0  0  0  0  0  0  0  0999 V2000
   -1.4289    4.9500    0.0000 C   0  0  0  0  0  0  0  0  0  0  0  0
   -0.7145    4.5375    0.0000 C   0  0  0  0  0  0  0  0  0  0  0  0
   -0.7145    3.7125    0.0000 O   0  0  0  0  0  0  0  0  0  0  0  0
    0.0000    3.3000    0.0000 C   0  0  0  0  0  0  0  0  0  0  0  0
    0.0000    2.4750    0.0000 C   0  0  0  0  0  0  0  0  0  0  0  0
    0.7145    2.0625    0.0000 C   0  0  0  0  0  0  0  0  0  0  0  0
    0.7145    1.2375    0.0000 C   0  0  0  0  0  0  0  0  0  0  0  0
    1.4289    0.8250    0.0000 C   0  0  0  0  0  0  0  0  0  0  0  0
    1.4289   -0.0000    0.0000 C   0  0  0  0  0  0  0  0  0  0  0  0
    0.7145   -0.4125    0.0000 C   0  0  0  0  0  0  0  0  0  0  0  0
    0.0000   -0.0000    0.0000 C   0  0  0  0  0  0  0  0  0  0  0  0
    0.0000    0.8250    0.0000 C   0  0  0  0  0  0  0  0  0  0  0  0
    0.7145   -1.2375    0.0000 C   0  0  0  0  0  0  0  0  0  0  0  0
    1.3819   -1.7224    0.0000 N   0  0  0  0  0  0  0  0  0  0  0  0
    1.1270   -2.5070    0.0000 C   0  0  0  0  0  0  0  0  0  0  0  0
    0.3020   -2.5070    0.0000 C   0  0  0  0  0  0  0  0  0  0  0  0
    0.0470   -1.7224    0.0000 N   0  0  0  0  0  0  0  0  0  0  0  0
   -0.1830   -3.1745    0.0000 C   0  0  0  0  0  0  0  0  0  0  0  0
    0.1526   -3.9282    0.0000 C   0  0  0  0  0  0  0  0  0  0  0  0
   -0.3323   -4.5956    0.0000 C   0  0  0  0  0  0  0  0  0  0  0  0
   -1.1528   -4.5094    0.0000 C   0  0  0  0  0  0  0  0  0  0  0  0
   -1.4884   -3.7557    0.0000 C   0  0  0  0  0  0  0  0  0  0  0  0
   -1.0034   -3.0882    0.0000 C   0  0  0  0  0  0  0  0  0  0  0  0
   -1.6377   -5.1768    0.0000 N   0  0  0  0  0  0  0  0  0  0  0  0
   -2.4582   -5.0906    0.0000 C   0  0  0  0  0  0  0  0  0  0  0  0
   -2.9431   -5.7580    0.0000 C   0  0  0  0  0  0  0  0  0  0  0  0
   -1.3022   -5.9305    0.0000 C   0  0  0  0  0  0  0  0  0  0  0  0
   -1.7871   -6.5979    0.0000 C   0  0  0  0  0  0  0  0  0  0  0  0
    1.6119   -3.1745    0.0000 C   0  0  0  0  0  0  0  0  0  0  0  0
    2.4324   -3.0882    0.0000 C   0  0  0  0  0  0  0  0  0  0  0  0
    2.9173   -3.7557    0.0000 C   0  0  0  0  0  0  0  0  0  0  0  0
    2.5817   -4.5094    0.0000 C   0  0  0  0  0  0  0  0  0  0  0  0
    1.7613   -4.5956    0.0000 C   0  0  0  0  0  0  0  0  0  0  0  0
    1.2763   -3.9282    0.0000 C   0  0  0  0  0  0  0  0  0  0  0  0
    3.0667   -5.1768    0.0000 N   0  0  0  0  0  0  0  0  0  0  0  0
    3.8871   -5.0906    0.0000 C   0  0  0  0  0  0  0  0  0  0  0  0
    4.3721   -5.7580    0.0000 C   0  0  0  0  0  0  0  0  0  0  0  0
    2.7311   -5.9305    0.0000 C   0  0  0  0  0  0  0  0  0  0  0  0
    1.9106   -6.0167    0.0000 C   0  0  0  0  0  0  0  0  0  0  0  0
  1  2  1  0  0  0  0
  2  3  1  0  0  0  0
  3  4  1  0  0  0  0
  4  5  1  0  0  0  0
  5  6  2  0  0  0  0
  6  7  1  0  0  0  0
  7  8  2  0  0  0  0
  7 12  1  0  0  0  0
  8  9  1  0  0  0  0
  9 10  2  0  0  0  0
 10 11  1  0  0  0  0
 10 13  1  0  0  0  0
 11 12  2  0  0  0  0
 13 14  1  0  0  0  0
 13 17  2  0  0  0  0
 14 15  1  0  0  0  0
 15 16  2  0  0  0  0
 15 29  1  0  0  0  0
 16 17  1  0  0  0  0
 16 18  1  0  0  0  0
 18 19  2  0  0  0  0
 18 23  1  0  0  0  0
 19 20  1  0  0  0  0
 20 21  2  0  0  0  0
 21 22  1  0  0  0  0
 21 24  1  0  0  0  0
 22 23  2  0  0  0  0
 24 25  1  0  0  0  0
 24 27  1  0  0  0  0
 25 26  1  0  0  0  0
 27 28  1  0  0  0  0
 29 30  2  0  0  0  0
 29 34  1  0  0  0  0
 30 31  1  0  0  0  0
 31 32  2  0  0  0  0
 32 33  1  0  0  0  0
 32 35  1  0  0  0  0
 33 34  2  0  0  0  0
 35 36  1  0  0  0  0
 35 38  1  0  0  0  0
 36 37  1  0  0  0  0
 38 39  1  0  0  0  0
M  END
$$$$

 OpenBabel12191814062D

 36 39  0  0  0  0  0  0  0  0999 V2000
   -1.4289    4.9500    0.0000 C   0  0  0  0  0  0  0  0  0  0  0  0
   -0.7145    4.5375    0.0000 C   0  0  0  0  0  0  0  0  0  0  0  0
   -0.7145    3.7125    0.0000 O   0  0  0  0  0  0  0  0  0  0  0  0
    0.0000    3.3000    0.0000 C   0  0  0  0  0  0  0  0  0  0  0  0
    0.0000    2.4750    0.0000 C   0  0  0  0  0  0  0  0  0  0  0  0
    0.7145    2.0625    0.0000 C   0  0  0  0  0  0  0  0  0  0  0  0
    0.7145    1.2375    0.0000 C   0  0  0  0  0  0  0  0  0  0  0  0
    1.4289    0.8250    0.0000 C   0  0  0  0  0  0  0  0  0  0  0  0
    1.4289   -0.0000    0.0000 C   0  0  0  0  0  0  0  0  0  0  0  0
    0.7145   -0.4125    0.0000 C   0  0  0  0  0  0  0  0  0  0  0  0
    0.0000   -0.0000    0.0000 C   0  0  0  0  0  0  0  0  0  0  0  0
    0.0000    0.8250    0.0000 C   0  0  0  0  0  0  0  0  0  0  0  0
    0.7145   -1.2375    0.0000 C   0  0  0  0  0  0  0  0  0  0  0  0
    1.3819   -1.7224    0.0000 N   0  0  0  0  0  0  0  0  0  0  0  0
    1.1270   -2.5070    0.0000 C   0  0  0  0  0  0  0  0  0  0  0  0
    0.3020   -2.5070    0.0000 C   0  0  0  0  0  0  0  0  0  0  0  0
    0.0470   -1.7224    0.0000 N   0  0  0  0  0  0  0  0  0  0  0  0
   -0.1830   -3.1745    0.0000 C   0  0  0  0  0  0  0  0  0  0  0  0
    0.1526   -3.9282    0.0000 C   0  0  0  0  0  0  0  0  0  0  0  0
   -0.3323   -4.5956    0.0000 C   0  0  0  0  0  0  0  0  0  0  0  0
   -1.1528   -4.5094    0.0000 C   0  0  0  0  0  0  0  0  0  0  0  0
   -1.4884   -3.7557    0.0000 C   0  0  0  0  0  0  0  0  0  0  0  0
   -1.0034   -3.0882    0.0000 C   0  0  0  0  0  0  0  0  0  0  0  0
   -1.6377   -5.1768    0.0000 N   0  0  0  0  0  0  0  0  0  0  0  0
   -2.4582   -5.0906    0.0000 C   0  0  0  0  0  0  0  0  0  0  0  0
   -2.9431   -5.7580    0.0000 C   0  0  0  0  0  0  0  0  0  0  0  0
   -1.3022   -5.9305    0.0000 C   0  0  0  0  0  0  0  0  0  0  0  0
   -1.7871   -6.5979    0.0000 C   0  0  0  0  0  0  0  0  0  0  0  0
    1.6119   -3.1745    0.0000 C   0  0  0  0  0  0  0  0  0  0  0  0
    2.4324   -3.0882    0.0000 C   0  0  0  0  0  0  0  0  0  0  0  0
    2.9173   -3.7557    0.0000 C   0  0  0  0  0  0  0  0  0  0  0  0
    2.5817   -4.5094    0.0000 C   0  0  0  0  0  0  0  0  0  0  0  0
    3.0667   -5.1768    0.0000 N   0  0  0  0  0  0  0  0  0  0  0  0
    2.7311   -5.9305    0.0000 C   0  0  0  0  0  0  0  0  0  0  0  0
    1.7613   -4.5956    0.0000 C   0  0  0  0  0  0  0  0  0  0  0  0
    1.2763   -3.9282    0.0000 C   0  0  0  0  0  0  0  0  0  0  0  0
  1  2  1  0  0  0  0
  2  3  1  0  0  0  0
  3  4  1  0  0  0  0
  4  5  1  0  0  0  0
  5  6  2  0  0  0  0
  6  7  1  0  0  0  0
  7  8  2  0  0  0  0
  7 12  1  0  0  0  0
  8  9  1  0  0  0  0
  9 10  2  0  0  0  0
 10 11  1  0  0  0  0
 10 13  1  0  0  0  0
 11 12  2  0  0  0  0
 13 14  1  0  0  0  0
 13 17  2  0  0  0  0
 14 15  1  0  0  0  0
 15 16  2  0  0  0  0
 15 29  1  0  0  0  0
 16 17  1  0  0  0  0
 16 18  1  0  0  0  0
 18 19  2  0  0  0  0
 18 23  1  0  0  0  0
 19 20  1  0  0  0  0
 20 21  2  0  0  0  0
 21 22  1  0  0  0  0
 21 24  1  0  0  0  0
 22 23  2  0  0  0  0
 24 25  1  0  0  0  0
 24 27  1  0  0  0  0
 25 26  1  0  0  0  0
 27 28  1  0  0  0  0
 29 30  2  0  0  0  0
 29 36  1  0  0  0  0
 30 31  1  0  0  0  0
 31 32  2  0  0  0  0
 32 33  1  0  0  0  0
 32 35  1  0  0  0  0
 33 34  1  0  0  0  0
 35 36  2  0  0  0  0
M  END
$$$$

 OpenBabel12191814062D

 36 40  0  0  0  0  0  0  0  0999 V2000
   -1.4289    4.9500    0.0000 C   0  0  0  0  0  0  0  0  0  0  0  0
   -0.7145    4.5375    0.0000 C   0  0  0  0  0  0  0  0  0  0  0  0
   -0.7145    3.7125    0.0000 O   0  0  0  0  0  0  0  0  0  0  0  0
    0.0000    3.3000    0.0000 C   0  0  0  0  0  0  0  0  0  0  0  0
    0.0000    2.4750    0.0000 C   0  0  0  0  0  0  0  0  0  0  0  0
    0.7145    2.0625    0.0000 C   0  0  0  0  0  0  0  0  0  0  0  0
    0.7145    1.2375    0.0000 C   0  0  0  0  0  0  0  0  0  0  0  0
    1.4289    0.8250    0.0000 C   0  0  0  0  0  0  0  0  0  0  0  0
    1.4289   -0.0000    0.0000 C   0  0  0  0  0  0  0  0  0  0  0  0
    0.7145   -0.4125    0.0000 C   0  0  0  0  0  0  0  0  0  0  0  0
    0.0000   -0.0000    0.0000 C   0  0  0  0  0  0  0  0  0  0  0  0
    0.0000    0.8250    0.0000 C   0  0  0  0  0  0  0  0  0  0  0  0
    0.7145   -1.2375    0.0000 C   0  0  0  0  0  0  0  0  0  0  0  0
    1.3819   -1.7224    0.0000 N   0  0  0  0  0  0  0  0  0  0  0  0
    1.1270   -2.5070    0.0000 C   0  0  0  0  0  0  0  0  0  0  0  0
    0.3020   -2.5070    0.0000 C   0  0  0  0  0  0  0  0  0  0  0  0
    0.0470   -1.7224    0.0000 N   0  0  0  0  0  0  0  0  0  0  0  0
   -0.1830   -3.1745    0.0000 C   0  0  0  0  0  0  0  0  0  0  0  0
    0.1526   -3.9282    0.0000 C   0  0  0  0  0  0  0  0  0  0  0  0
   -0.3323   -4.5956    0.0000 C   0  0  0  0  0  0  0  0  0  0  0  0
   -1.1528   -4.5094    0.0000 C   0  0  0  0  0  0  0  0  0  0  0  0
   -1.4884   -3.7557    0.0000 C   0  0  0  0  0  0  0  0  0  0  0  0
   -1.0034   -3.0882    0.0000 C   0  0  0  0  0  0  0  0  0  0  0  0
   -1.6377   -5.1768    0.0000 N   0  0  0  0  0  0  0  0  0  0  0  0
   -1.3828   -5.9614    0.0000 C   0  0  0  0  0  0  0  0  0  0  0  0
   -2.0502   -6.4463    0.0000 C   0  0  0  0  0  0  0  0  0  0  0  0
   -2.7177   -5.9614    0.0000 C   0  0  0  0  0  0  0  0  0  0  0  0
   -2.4627   -5.1768    0.0000 C   0  0  0  0  0  0  0  0  0  0  0  0
    1.6119   -3.1745    0.0000 C   0  0  0  0  0  0  0  0  0  0  0  0
    2.4324   -3.0882    0.0000 C   0  0  0  0  0  0  0  0  0  0  0  0
    2.9173   -3.7557    0.0000 C   0  0  0  0  0  0  0  0  0  0  0  0
    2.5817   -4.5094    0.0000 C   0  0  0  0  0  0  0  0  0  0  0  0
    3.0667   -5.1768    0.0000 N   0  0  0  0  0  0  0  0  0  0  0  0
    2.7311   -5.9305    0.0000 C   0  0  0  0  0  0  0  0  0  0  0  0
    1.7613   -4.5956    0.0000 C   0  0  0  0  0  0  0  0  0  0  0  0
    1.2763   -3.9282    0.0000 C   0  0  0  0  0  0  0  0  0  0  0  0
  1  2  1  0  0  0  0
  2  3  1  0  0  0  0
  3  4  1  0  0  0  0
  4  5  1  0  0  0  0
  5  6  2  0  0  0  0
  6  7  1  0  0  0  0
  7  8  2  0  0  0  0
  7 12  1  0  0  0  0
  8  9  1  0  0  0  0
  9 10  2  0  0  0  0
 10 11  1  0  0  0  0
 10 13  1  0  0  0  0
 11 12  2  0  0  0  0
 13 14  1  0  0  0  0
 13 17  2  0  0  0  0
 14 15  1  0  0  0  0
 15 16  2  0  0  0  0
 15 29  1  0  0  0  0
 16 17  1  0  0  0  0
 16 18  1  0  0  0  0
 18 19  2  0  0  0  0
 18 23  1  0  0  0  0
 19 20  1  0  0  0  0
 20 21  2  0  0  0  0
 21 22  1  0  0  0  0
 21 24  1  0  0  0  0
 22 23  2  0  0  0  0
 24 25  1  0  0  0  0
 24 28  1  0  0  0  0
 25 26  1  0  0  0  0
 26 27  1  0  0  0  0
 27 28  1  0  0  0  0
 29 30  2  0  0  0  0
 29 36  1  0  0  0  0
 30 31  1  0  0  0  0
 31 32  2  0  0  0  0
 32 33  1  0  0  0  0
 32 35  1  0  0  0  0
 33 34  1  0  0  0  0
 35 36  2  0  0  0  0
M  END
$$$$

 OpenBabel12191814062D

 34 37  0  0  0  0  0  0  0  0999 V2000
   -1.4289    4.9500    0.0000 C   0  0  0  0  0  0  0  0  0  0  0  0
   -0.7145    4.5375    0.0000 C   0  0  0  0  0  0  0  0  0  0  0  0
   -0.7145    3.7125    0.0000 O   0  0  0  0  0  0  0  0  0  0  0  0
    0.0000    3.3000    0.0000 C   0  0  0  0  0  0  0  0  0  0  0  0
    0.0000    2.4750    0.0000 C   0  0  0  0  0  0  0  0  0  0  0  0
    0.7145    2.0625    0.0000 C   0  0  0  0  0  0  0  0  0  0  0  0
    0.7145    1.2375    0.0000 C   0  0  0  0  0  0  0  0  0  0  0  0
    1.4289    0.8250    0.0000 C   0  0  0  0  0  0  0  0  0  0  0  0
    1.4289   -0.0000    0.0000 C   0  0  0  0  0  0  0  0  0  0  0  0
    0.7145   -0.4125    0.0000 C   0  0  0  0  0  0  0  0  0  0  0  0
    0.0000   -0.0000    0.0000 C   0  0  0  0  0  0  0  0  0  0  0  0
    0.0000    0.8250    0.0000 C   0  0  0  0  0  0  0  0  0  0  0  0
    0.7145   -1.2375    0.0000 C   0  0  0  0  0  0  0  0  0  0  0  0
    1.3819   -1.7224    0.0000 N   0  0  0  0  0  0  0  0  0  0  0  0
    1.1270   -2.5070    0.0000 C   0  0  0  0  0  0  0  0  0  0  0  0
    0.3020   -2.5070    0.0000 C   0  0  0  0  0  0  0  0  0  0  0  0
    0.0470   -1.7224    0.0000 N   0  0  0  0  0  0  0  0  0  0  0  0
   -0.1830   -3.1745    0.0000 C   0  0  0  0  0  0  0  0  0  0  0  0
    0.1526   -3.9282    0.0000 C   0  0  0  0  0  0  0  0  0  0  0  0
   -0.3323   -4.5956    0.0000 C   0  0  0  0  0  0  0  0  0  0  0  0
   -1.1528   -4.5094    0.0000 C   0  0  0  0  0  0  0  0  0  0  0  0
   -1.6377   -5.1768    0.0000 N   0  0  0  0  0  0  0  0  0  0  0  0
   -2.4582   -5.0906    0.0000 C   0  0  0  0  0  0  0  0  0  0  0  0
   -2.9431   -5.7580    0.0000 C   0  0  0  0  0  0  0  0  0  0  0  0
   -2.7938   -4.3369    0.0000 C   0  0  0  0  0  0  0  0  0  0  0  0
   -1.4884   -3.7557    0.0000 C   0  0  0  0  0  0  0  0  0  0  0  0
   -1.0034   -3.0882    0.0000 C   0  0  0  0  0  0  0  0  0  0  0  0
    1.6119   -3.1745    0.0000 C   0  0  0  0  0  0  0  0  0  0  0  0
    2.4324   -3.0882    0.0000 C   0  0  0  0  0  0  0  0  0  0  0  0
    2.9173   -3.7557    0.0000 C   0  0  0  0  0  0  0  0  0  0  0  0
    2.5817   -4.5094    0.0000 C   0  0  0  0  0  0  0  0  0  0  0  0
    3.0667   -5.1768    0.0000 F   0  0  0  0  0  0  0  0  0  0  0  0
    1.7613   -4.5956    0.0000 C   0  0  0  0  0  0  0  0  0  0  0  0
    1.2763   -3.9282    0.0000 C   0  0  0  0  0  0  0  0  0  0  0  0
  1  2  1  0  0  0  0
  2  3  1  0  0  0  0
  3  4  1  0  0  0  0
  4  5  1  0  0  0  0
  5  6  2  0  0  0  0
  6  7  1  0  0  0  0
  7  8  2  0  0  0  0
  7 12  1  0  0  0  0
  8  9  1  0  0  0  0
  9 10  2  0  0  0  0
 10 11  1  0  0  0  0
 10 13  1  0  0  0  0
 11 12  2  0  0  0  0
 13 14  1  0  0  0  0
 13 17  2  0  0  0  0
 14 15  1  0  0  0  0
 15 16  2  0  0  0  0
 15 28  1  0  0  0  0
 16 17  1  0  0  0  0
 16 18  1  0  0  0  0
 18 19  2  0  0  0  0
 18 27  1  0  0  0  0
 19 20  1  0  0  0  0
 20 21  2  0  0  0  0
 21 22  1  0  0  0  0
 21 26  1  0  0  0  0
 22 23  1  0  0  0  0
 23 24  1  0  0  0  0
 23 25  1  0  0  0  0
 26 27  2  0  0  0  0
 28 29  2  0  0  0  0
 28 34  1  0  0  0  0
 29 30  1  0  0  0  0
 30 31  2  0  0  0  0
 31 32  1  0  0  0  0
 31 33  1  0  0  0  0
 33 34  2  0  0  0  0
M  END
$$$$

 OpenBabel12191814062D

 37 40  0  0  0  0  0  0  0  0999 V2000
   -1.4289    4.9500    0.0000 C   0  0  0  0  0  0  0  0  0  0  0  0
   -0.7145    4.5375    0.0000 C   0  0  0  0  0  0  0  0  0  0  0  0
   -0.7145    3.7125    0.0000 O   0  0  0  0  0  0  0  0  0  0  0  0
    0.0000    3.3000    0.0000 C   0  0  0  0  0  0  0  0  0  0  0  0
    0.0000    2.4750    0.0000 C   0  0  0  0  0  0  0  0  0  0  0  0
    0.7145    2.0625    0.0000 C   0  0  0  0  0  0  0  0  0  0  0  0
    0.7145    1.2375    0.0000 C   0  0  0  0  0  0  0  0  0  0  0  0
    1.4289    0.8250    0.0000 C   0  0  0  0  0  0  0  0  0  0  0  0
    1.4289   -0.0000    0.0000 C   0  0  0  0  0  0  0  0  0  0  0  0
    0.7145   -0.4125    0.0000 C   0  0  0  0  0  0  0  0  0  0  0  0
    0.0000   -0.0000    0.0000 C   0  0  0  0  0  0  0  0  0  0  0  0
    0.0000    0.8250    0.0000 C   0  0  0  0  0  0  0  0  0  0  0  0
    0.7145   -1.2375    0.0000 C   0  0  0  0  0  0  0  0  0  0  0  0
    1.3819   -1.7224    0.0000 N   0  0  0  0  0  0  0  0  0  0  0  0
    1.1270   -2.5070    0.0000 C   0  0  0  0  0  0  0  0  0  0  0  0
    0.3020   -2.5070    0.0000 C   0  0  0  0  0  0  0  0  0  0  0  0
    0.0470   -1.7224    0.0000 N   0  0  0  0  0  0  0  0  0  0  0  0
   -0.1830   -3.1745    0.0000 C   0  0  0  0  0  0  0  0  0  0  0  0
    0.1526   -3.9282    0.0000 C   0  0  0  0  0  0  0  0  0  0  0  0
   -0.3323   -4.5956    0.0000 C   0  0  0  0  0  0  0  0  0  0  0  0
   -1.1528   -4.5094    0.0000 C   0  0  0  0  0  0  0  0  0  0  0  0
   -1.6377   -5.1768    0.0000 N   0  0  0  0  0  0  0  0  0  0  0  0
   -2.4582   -5.0906    0.0000 C   0  0  0  0  0  0  0  0  0  0  0  0
   -2.9431   -5.7580    0.0000 C   0  0  0  0  0  0  0  0  0  0  0  0
   -2.7938   -4.3369    0.0000 C   0  0  0  0  0  0  0  0  0  0  0  0
   -1.4884   -3.7557    0.0000 C   0  0  0  0  0  0  0  0  0  0  0  0
   -1.0034   -3.0882    0.0000 C   0  0  0  0  0  0  0  0  0  0  0  0
    1.6119   -3.1745    0.0000 C   0  0  0  0  0  0  0  0  0  0  0  0
    2.4324   -3.0882    0.0000 C   0  0  0  0  0  0  0  0  0  0  0  0
    2.9173   -3.7557    0.0000 C   0  0  0  0  0  0  0  0  0  0  0  0
    2.5817   -4.5094    0.0000 C   0  0  0  0  0  0  0  0  0  0  0  0
    3.0667   -5.1768    0.0000 N   0  0  0  0  0  0  0  0  0  0  0  0
    3.8871   -5.0906    0.0000 C   0  0  0  0  0  0  0  0  0  0  0  0
    4.2227   -4.3369    0.0000 C   0  0  0  0  0  0  0  0  0  0  0  0
    4.3721   -5.7580    0.0000 C   0  0  0  0  0  0  0  0  0  0  0  0
    1.7613   -4.5956    0.0000 C   0  0  0  0  0  0  0  0  0  0  0  0
    1.2763   -3.9282    0.0000 C   0  0  0  0  0  0  0  0  0  0  0  0
  1  2  1  0  0  0  0
  2  3  1  0  0  0  0
  3  4  1  0  0  0  0
  4  5  1  0  0  0  0
  5  6  2  0  0  0  0
  6  7  1  0  0  0  0
  7  8  2  0  0  0  0
  7 12  1  0  0  0  0
  8  9  1  0  0  0  0
  9 10  2  0  0  0  0
 10 11  1  0  0  0  0
 10 13  1  0  0  0  0
 11 12  2  0  0  0  0
 13 14  1  0  0  0  0
 13 17  2  0  0  0  0
 14 15  1  0  0  0  0
 15 16  2  0  0  0  0
 15 28  1  0  0  0  0
 16 17  1  0  0  0  0
 16 18  1  0  0  0  0
 18 19  2  0  0  0  0
 18 27  1  0  0  0  0
 19 20  1  0  0  0  0
 20 21  2  0  0  0  0
 21 22  1  0  0  0  0
 21 26  1  0  0  0  0
 22 23  1  0  0  0  0
 23 24  1  0  0  0  0
 23 25  1  0  0  0  0
 26 27  2  0  0  0  0
 28 29  2  0  0  0  0
 28 37  1  0  0  0  0
 29 30  1  0  0  0  0
 30 31  2  0  0  0  0
 31 32  1  0  0  0  0
 31 36  1  0  0  0  0
 32 33  1  0  0  0  0
 33 34  1  0  0  0  0
 33 35  1  0  0  0  0
 36 37  2  0  0  0  0
M  END
$$$$

 OpenBabel12191814062D

 35 38  0  0  0  0  0  0  0  0999 V2000
   -1.4289    4.9500    0.0000 C   0  0  0  0  0  0  0  0  0  0  0  0
   -0.7145    4.5375    0.0000 C   0  0  0  0  0  0  0  0  0  0  0  0
   -0.7145    3.7125    0.0000 O   0  0  0  0  0  0  0  0  0  0  0  0
    0.0000    3.3000    0.0000 C   0  0  0  0  0  0  0  0  0  0  0  0
    0.0000    2.4750    0.0000 C   0  0  0  0  0  0  0  0  0  0  0  0
    0.7145    2.0625    0.0000 C   0  0  0  0  0  0  0  0  0  0  0  0
    0.7145    1.2375    0.0000 C   0  0  0  0  0  0  0  0  0  0  0  0
    1.4289    0.8250    0.0000 C   0  0  0  0  0  0  0  0  0  0  0  0
    1.4289   -0.0000    0.0000 C   0  0  0  0  0  0  0  0  0  0  0  0
    0.7145   -0.4125    0.0000 C   0  0  0  0  0  0  0  0  0  0  0  0
    0.0000   -0.0000    0.0000 C   0  0  0  0  0  0  0  0  0  0  0  0
    0.0000    0.8250    0.0000 C   0  0  0  0  0  0  0  0  0  0  0  0
    0.7145   -1.2375    0.0000 C   0  0  0  0  0  0  0  0  0  0  0  0
    1.3819   -1.7224    0.0000 N   0  0  0  0  0  0  0  0  0  0  0  0
    1.1270   -2.5070    0.0000 C   0  0  0  0  0  0  0  0  0  0  0  0
    0.3020   -2.5070    0.0000 C   0  0  0  0  0  0  0  0  0  0  0  0
    0.0470   -1.7224    0.0000 N   0  0  0  0  0  0  0  0  0  0  0  0
   -0.1830   -3.1745    0.0000 C   0  0  0  0  0  0  0  0  0  0  0  0
    0.1526   -3.9282    0.0000 C   0  0  0  0  0  0  0  0  0  0  0  0
   -0.3323   -4.5956    0.0000 C   0  0  0  0  0  0  0  0  0  0  0  0
   -1.1528   -4.5094    0.0000 C   0  0  0  0  0  0  0  0  0  0  0  0
   -1.6377   -5.1768    0.0000 N   0  0  0  0  0  0  0  0  0  0  0  0
   -2.4582   -5.0906    0.0000 C   0  0  0  0  0  0  0  0  0  0  0  0
   -2.9431   -5.7580    0.0000 C   0  0  0  0  0  0  0  0  0  0  0  0
   -2.7938   -4.3369    0.0000 C   0  0  0  0  0  0  0  0  0  0  0  0
   -1.4884   -3.7557    0.0000 C   0  0  0  0  0  0  0  0  0  0  0  0
   -1.0034   -3.0882    0.0000 C   0  0  0  0  0  0  0  0  0  0  0  0
    1.6119   -3.1745    0.0000 C   0  0  0  0  0  0  0  0  0  0  0  0
    2.4324   -3.0882    0.0000 C   0  0  0  0  0  0  0  0  0  0  0  0
    2.9173   -3.7557    0.0000 C   0  0  0  0  0  0  0  0  0  0  0  0
    2.5817   -4.5094    0.0000 C   0  0  0  0  0  0  0  0  0  0  0  0
    3.0667   -5.1768    0.0000 N   0  0  0  0  0  0  0  0  0  0  0  0
    2.7311   -5.9305    0.0000 C   0  0  0  0  0  0  0  0  0  0  0  0
    1.7613   -4.5956    0.0000 C   0  0  0  0  0  0  0  0  0  0  0  0
    1.2763   -3.9282    0.0000 C   0  0  0  0  0  0  0  0  0  0  0  0
  1  2  1  0  0  0  0
  2  3  1  0  0  0  0
  3  4  1  0  0  0  0
  4  5  1  0  0  0  0
  5  6  2  0  0  0  0
  6  7  1  0  0  0  0
  7  8  2  0  0  0  0
  7 12  1  0  0  0  0
  8  9  1  0  0  0  0
  9 10  2  0  0  0  0
 10 11  1  0  0  0  0
 10 13  1  0  0  0  0
 11 12  2  0  0  0  0
 13 14  1  0  0  0  0
 13 17  2  0  0  0  0
 14 15  1  0  0  0  0
 15 16  2  0  0  0  0
 15 28  1  0  0  0  0
 16 17  1  0  0  0  0
 16 18  1  0  0  0  0
 18 19  2  0  0  0  0
 18 27  1  0  0  0  0
 19 20  1  0  0  0  0
 20 21  2  0  0  0  0
 21 22  1  0  0  0  0
 21 26  1  0  0  0  0
 22 23  1  0  0  0  0
 23 24  1  0  0  0  0
 23 25  1  0  0  0  0
 26 27  2  0  0  0  0
 28 29  2  0  0  0  0
 28 35  1  0  0  0  0
 29 30  1  0  0  0  0
 30 31  2  0  0  0  0
 31 32  1  0  0  0  0
 31 34  1  0  0  0  0
 32 33  1  0  0  0  0
 34 35  2  0  0  0  0
M  END
$$$$

 OpenBabel12191814062D

 28 30  0  0  0  0  0  0  0  0999 V2000
   -1.4289    4.9500    0.0000 C   0  0  0  0  0  0  0  0  0  0  0  0
   -0.7145    4.5375    0.0000 C   0  0  0  0  0  0  0  0  0  0  0  0
   -0.7145    3.7125    0.0000 O   0  0  0  0  0  0  0  0  0  0  0  0
    0.0000    3.3000    0.0000 C   0  0  0  0  0  0  0  0  0  0  0  0
    0.0000    2.4750    0.0000 C   0  0  0  0  0  0  0  0  0  0  0  0
    0.7145    2.0625    0.0000 C   0  0  0  0  0  0  0  0  0  0  0  0
    0.7145    1.2375    0.0000 C   0  0  0  0  0  0  0  0  0  0  0  0
    1.4289    0.8250    0.0000 C   0  0  0  0  0  0  0  0  0  0  0  0
    1.4289   -0.0000    0.0000 C   0  0  0  0  0  0  0  0  0  0  0  0
    0.7145   -0.4125    0.0000 C   0  0  0  0  0  0  0  0  0  0  0  0
    0.0000    0.0000    0.0000 C   0  0  0  0  0  0  0  0  0  0  0  0
    0.0000    0.8250    0.0000 C   0  0  0  0  0  0  0  0  0  0  0  0
    0.7145   -1.2375    0.0000 C   0  0  0  0  0  0  0  0  0  0  0  0
    1.3819   -1.7224    0.0000 N   0  0  0  0  0  0  0  0  0  0  0  0
    1.1270   -2.5070    0.0000 C   0  0  0  0  0  0  0  0  0  0  0  0
    0.3020   -2.5070    0.0000 C   0  0  0  0  0  0  0  0  0  0  0  0
    0.0470   -1.7224    0.0000 N   0  0  0  0  0  0  0  0  0  0  0  0
   -0.1830   -3.1745    0.0000 C   0  0  0  0  0  0  0  0  0  0  0  0
    0.1526   -3.9282    0.0000 C   0  0  0  0  0  0  0  0  0  0  0  0
   -0.3323   -4.5956    0.0000 C   0  0  0  0  0  0  0  0  0  0  0  0
   -1.1528   -4.5094    0.0000 C   0  0  0  0  0  0  0  0  0  0  0  0
   -1.4884   -3.7557    0.0000 C   0  0  0  0  0  0  0  0  0  0  0  0
   -1.0034   -3.0882    0.0000 C   0  0  0  0  0  0  0  0  0  0  0  0
   -1.6377   -5.1768    0.0000 N   0  0  0  0  0  0  0  0  0  0  0  0
   -2.4582   -5.0906    0.0000 C   0  0  0  0  0  0  0  0  0  0  0  0
   -2.9431   -5.7580    0.0000 C   0  0  0  0  0  0  0  0  0  0  0  0
   -1.3022   -5.9305    0.0000 C   0  0  0  0  0  0  0  0  0  0  0  0
   -1.7871   -6.5979    0.0000 C   0  0  0  0  0  0  0  0  0  0  0  0
  1  2  1  0  0  0  0
  2  3  1  0  0  0  0
  3  4  1  0  0  0  0
  4  5  1  0  0  0  0
  5  6  2  0  0  0  0
  6  7  1  0  0  0  0
  7  8  2  0  0  0  0
  7 12  1  0  0  0  0
  8  9  1  0  0  0  0
  9 10  2  0  0  0  0
 10 11  1  0  0  0  0
 10 13  1  0  0  0  0
 11 12  2  0  0  0  0
 13 14  1  0  0  0  0
 13 17  2  0  0  0  0
 14 15  1  0  0  0  0
 15 16  2  0  0  0  0
 16 17  1  0  0  0  0
 16 18  1  0  0  0  0
 18 19  2  0  0  0  0
 18 23  1  0  0  0  0
 19 20  1  0  0  0  0
 20 21  2  0  0  0  0
 21 22  1  0  0  0  0
 21 24  1  0  0  0  0
 22 23  2  0  0  0  0
 24 25  1  0  0  0  0
 24 27  1  0  0  0  0
 25 26  1  0  0  0  0
 27 28  1  0  0  0  0
M  END
$$$$

 OpenBabel12191814062D

 29 32  0  0  0  0  0  0  0  0999 V2000
   -1.4289    2.4750    0.0000 C   0  0  0  0  0  0  0  0  0  0  0  0
   -0.7145    2.0625    0.0000 C   0  0  0  0  0  0  0  0  0  0  0  0
   -0.7145    1.2375    0.0000 O   0  0  0  0  0  0  0  0  0  0  0  0
    0.0000    0.8250    0.0000 C   0  0  0  0  0  0  0  0  0  0  0  0
    0.0000    0.0000    0.0000 C   0  0  0  0  0  0  0  0  0  0  0  0
    0.7145   -0.4125    0.0000 C   0  0  0  0  0  0  0  0  0  0  0  0
    0.7145   -1.2375    0.0000 C   0  0  0  0  0  0  0  0  0  0  0  0
    1.4289   -1.6500    0.0000 C   0  0  0  0  0  0  0  0  0  0  0  0
    1.4289   -2.4750    0.0000 C   0  0  0  0  0  0  0  0  0  0  0  0
    0.7145   -2.8875    0.0000 C   0  0  0  0  0  0  0  0  0  0  0  0
    0.0000   -2.4750    0.0000 C   0  0  0  0  0  0  0  0  0  0  0  0
    0.0000   -1.6500    0.0000 C   0  0  0  0  0  0  0  0  0  0  0  0
    0.7145   -3.7125    0.0000 C   0  0  0  0  0  0  0  0  0  0  0  0
    1.3819   -4.1974    0.0000 N   0  0  0  0  0  0  0  0  0  0  0  0
    1.1270   -4.9820    0.0000 C   0  0  0  0  0  0  0  0  0  0  0  0
    0.3020   -4.9820    0.0000 C   0  0  0  0  0  0  0  0  0  0  0  0
    0.0470   -4.1974    0.0000 N   0  0  0  0  0  0  0  0  0  0  0  0
   -0.1830   -5.6495    0.0000 C   0  0  0  0  0  0  0  0  0  0  0  0
    0.1526   -6.4032    0.0000 C   0  0  0  0  0  0  0  0  0  0  0  0
   -0.3323   -7.0706    0.0000 C   0  0  0  0  0  0  0  0  0  0  0  0
   -1.1528   -6.9844    0.0000 C   0  0  0  0  0  0  0  0  0  0  0  0
   -1.4884   -6.2307    0.0000 C   0  0  0  0  0  0  0  0  0  0  0  0
   -1.0034   -5.5632    0.0000 C   0  0  0  0  0  0  0  0  0  0  0  0
   -1.6377   -7.6518    0.0000 N   0  0  0  0  0  0  0  0  0  0  0  0
   -1.3022   -8.4055    0.0000 C   0  0  0  0  0  0  0  0  0  0  0  0
   -1.7871   -9.0729    0.0000 C   0  0  0  0  0  0  0  0  0  0  0  0
   -2.6076   -8.9867    0.0000 O   0  0  0  0  0  0  0  0  0  0  0  0
   -2.9431   -8.2330    0.0000 C   0  0  0  0  0  0  0  0  0  0  0  0
   -2.4582   -7.5656    0.0000 C   0  0  0  0  0  0  0  0  0  0  0  0
  1  2  1  0  0  0  0
  2  3  1  0  0  0  0
  3  4  1  0  0  0  0
  4  5  1  0  0  0  0
  5  6  2  0  0  0  0
  6  7  1  0  0  0  0
  7  8  2  0  0  0  0
  7 12  1  0  0  0  0
  8  9  1  0  0  0  0
  9 10  2  0  0  0  0
 10 11  1  0  0  0  0
 10 13  1  0  0  0  0
 11 12  2  0  0  0  0
 13 14  1  0  0  0  0
 13 17  2  0  0  0  0
 14 15  1  0  0  0  0
 15 16  2  0  0  0  0
 16 17  1  0  0  0  0
 16 18  1  0  0  0  0
 18 19  2  0  0  0  0
 18 23  1  0  0  0  0
 19 20  1  0  0  0  0
 20 21  2  0  0  0  0
 21 22  1  0  0  0  0
 21 24  1  0  0  0  0
 22 23  2  0  0  0  0
 24 25  1  0  0  0  0
 24 29  1  0  0  0  0
 25 26  1  0  0  0  0
 26 27  1  0  0  0  0
 27 28  1  0  0  0  0
 28 29  1  0  0  0  0
M  END
$$$$

 OpenBabel12191814062D

 27 29  0  0  0  0  0  0  0  0999 V2000
   -1.4289    4.9500    0.0000 C   0  0  0  0  0  0  0  0  0  0  0  0
   -0.7145    4.5375    0.0000 C   0  0  0  0  0  0  0  0  0  0  0  0
   -0.7145    3.7125    0.0000 O   0  0  0  0  0  0  0  0  0  0  0  0
    0.0000    3.3000    0.0000 C   0  0  0  0  0  0  0  0  0  0  0  0
    0.0000    2.4750    0.0000 C   0  0  0  0  0  0  0  0  0  0  0  0
    0.7145    2.0625    0.0000 C   0  0  0  0  0  0  0  0  0  0  0  0
    0.7145    1.2375    0.0000 C   0  0  0  0  0  0  0  0  0  0  0  0
    1.4289    0.8250    0.0000 C   0  0  0  0  0  0  0  0  0  0  0  0
    1.4289   -0.0000    0.0000 C   0  0  0  0  0  0  0  0  0  0  0  0
    0.7145   -0.4125    0.0000 C   0  0  0  0  0  0  0  0  0  0  0  0
    0.0000    0.0000    0.0000 C   0  0  0  0  0  0  0  0  0  0  0  0
    0.0000    0.8250    0.0000 C   0  0  0  0  0  0  0  0  0  0  0  0
    0.7145   -1.2375    0.0000 C   0  0  0  0  0  0  0  0  0  0  0  0
    1.3819   -1.7224    0.0000 N   0  0  0  0  0  0  0  0  0  0  0  0
    1.1270   -2.5070    0.0000 C   0  0  0  0  0  0  0  0  0  0  0  0
    0.3020   -2.5070    0.0000 C   0  0  0  0  0  0  0  0  0  0  0  0
    0.0470   -1.7224    0.0000 N   0  0  0  0  0  0  0  0  0  0  0  0
   -0.1830   -3.1745    0.0000 C   0  0  0  0  0  0  0  0  0  0  0  0
    0.1526   -3.9282    0.0000 C   0  0  0  0  0  0  0  0  0  0  0  0
   -0.3323   -4.5956    0.0000 C   0  0  0  0  0  0  0  0  0  0  0  0
   -1.1528   -4.5094    0.0000 C   0  0  0  0  0  0  0  0  0  0  0  0
   -1.6377   -5.1768    0.0000 N   0  0  0  0  0  0  0  0  0  0  0  0
   -2.4582   -5.0906    0.0000 C   0  0  0  0  0  0  0  0  0  0  0  0
   -2.9431   -5.7580    0.0000 C   0  0  0  0  0  0  0  0  0  0  0  0
   -2.7938   -4.3369    0.0000 C   0  0  0  0  0  0  0  0  0  0  0  0
   -1.4884   -3.7557    0.0000 C   0  0  0  0  0  0  0  0  0  0  0  0
   -1.0034   -3.0882    0.0000 C   0  0  0  0  0  0  0  0  0  0  0  0
  1  2  1  0  0  0  0
  2  3  1  0  0  0  0
  3  4  1  0  0  0  0
  4  5  1  0  0  0  0
  5  6  2  0  0  0  0
  6  7  1  0  0  0  0
  7  8  2  0  0  0  0
  7 12  1  0  0  0  0
  8  9  1  0  0  0  0
  9 10  2  0  0  0  0
 10 11  1  0  0  0  0
 10 13  1  0  0  0  0
 11 12  2  0  0  0  0
 13 14  1  0  0  0  0
 13 17  2  0  0  0  0
 14 15  1  0  0  0  0
 15 16  2  0  0  0  0
 16 17  1  0  0  0  0
 16 18  1  0  0  0  0
 18 19  2  0  0  0  0
 18 27  1  0  0  0  0
 19 20  1  0  0  0  0
 20 21  2  0  0  0  0
 21 22  1  0  0  0  0
 21 26  1  0  0  0  0
 22 23  1  0  0  0  0
 23 24  1  0  0  0  0
 23 25  1  0  0  0  0
 26 27  2  0  0  0  0
M  END
$$$$

 OpenBabel12191814062D

 28 30  0  0  0  0  0  0  0  0999 V2000
   -1.4289    4.9500    0.0000 C   0  0  0  0  0  0  0  0  0  0  0  0
   -0.7145    4.5375    0.0000 C   0  0  0  0  0  0  0  0  0  0  0  0
   -0.7145    3.7125    0.0000 O   0  0  0  0  0  0  0  0  0  0  0  0
    0.0000    3.3000    0.0000 C   0  0  0  0  0  0  0  0  0  0  0  0
    0.0000    2.4750    0.0000 C   0  0  0  0  0  0  0  0  0  0  0  0
    0.7145    2.0625    0.0000 C   0  0  0  0  0  0  0  0  0  0  0  0
    0.7145    1.2375    0.0000 C   0  0  0  0  0  0  0  0  0  0  0  0
    1.4289    0.8250    0.0000 C   0  0  0  0  0  0  0  0  0  0  0  0
    1.4289   -0.0000    0.0000 C   0  0  0  0  0  0  0  0  0  0  0  0
    0.7145   -0.4125    0.0000 C   0  0  0  0  0  0  0  0  0  0  0  0
    0.0000    0.0000    0.0000 C   0  0  0  0  0  0  0  0  0  0  0  0
    0.0000    0.8250    0.0000 C   0  0  0  0  0  0  0  0  0  0  0  0
    0.7145   -1.2375    0.0000 C   0  0  0  0  0  0  0  0  0  0  0  0
    1.3819   -1.7224    0.0000 N   0  0  0  0  0  0  0  0  0  0  0  0
    1.1270   -2.5070    0.0000 C   0  0  0  0  0  0  0  0  0  0  0  0
    0.3020   -2.5070    0.0000 C   0  0  0  0  0  0  0  0  0  0  0  0
    0.0470   -1.7224    0.0000 N   0  0  0  0  0  0  0  0  0  0  0  0
   -0.1830   -3.1745    0.0000 C   0  0  0  0  0  0  0  0  0  0  0  0
    0.1526   -3.9282    0.0000 C   0  0  0  0  0  0  0  0  0  0  0  0
   -0.3323   -4.5956    0.0000 C   0  0  0  0  0  0  0  0  0  0  0  0
   -1.1528   -4.5094    0.0000 C   0  0  0  0  0  0  0  0  0  0  0  0
   -1.6377   -5.1768    0.0000 N   0  0  0  0  0  0  0  0  0  0  0  0
   -1.3022   -5.9305    0.0000 C   0  0  0  0  0  0  0  0  0  0  0  0
   -1.7871   -6.5979    0.0000 C   0  0  0  0  0  0  0  0  0  0  0  0
   -1.4515   -7.3516    0.0000 C   0  0  0  0  0  0  0  0  0  0  0  0
   -2.6076   -6.5117    0.0000 C   0  0  0  0  0  0  0  0  0  0  0  0
   -1.4884   -3.7557    0.0000 C   0  0  0  0  0  0  0  0  0  0  0  0
   -1.0034   -3.0882    0.0000 C   0  0  0  0  0  0  0  0  0  0  0  0
  1  2  1  0  0  0  0
  2  3  1  0  0  0  0
  3  4  1  0  0  0  0
  4  5  1  0  0  0  0
  5  6  2  0  0  0  0
  6  7  1  0  0  0  0
  7  8  2  0  0  0  0
  7 12  1  0  0  0  0
  8  9  1  0  0  0  0
  9 10  2  0  0  0  0
 10 11  1  0  0  0  0
 10 13  1  0  0  0  0
 11 12  2  0  0  0  0
 13 14  1  0  0  0  0
 13 17  2  0  0  0  0
 14 15  1  0  0  0  0
 15 16  2  0  0  0  0
 16 17  1  0  0  0  0
 16 18  1  0  0  0  0
 18 19  2  0  0  0  0
 18 28  1  0  0  0  0
 19 20  1  0  0  0  0
 20 21  2  0  0  0  0
 21 22  1  0  0  0  0
 21 27  1  0  0  0  0
 22 23  1  0  0  0  0
 23 24  1  0  0  0  0
 24 25  1  0  0  0  0
 24 26  1  0  0  0  0
 27 28  2  0  0  0  0
M  END
$$$$

 OpenBabel12191814062D

 22 24  0  0  0  0  0  0  0  0999 V2000
   -0.7145   -2.8875    0.0000 C   0  0  0  0  0  0  0  0  0  0  0  0
    0.0000   -2.4750    0.0000 C   0  0  0  0  0  0  0  0  0  0  0  0
    0.0000   -1.6500    0.0000 O   0  0  0  0  0  0  0  0  0  0  0  0
    0.7145   -1.2375    0.0000 C   0  0  0  0  0  0  0  0  0  0  0  0
    0.7145   -0.4125    0.0000 C   0  0  0  0  0  0  0  0  0  0  0  0
    0.0000    0.0000    0.0000 O   0  0  0  0  0  0  0  0  0  0  0  0
    1.4289    0.0000    0.0000 C   0  0  0  0  0  0  0  0  0  0  0  0
    2.1434   -0.4125    0.0000 C   0  0  0  0  0  0  0  0  0  0  0  0
    2.8579    0.0000    0.0000 O   0  0  0  0  0  0  0  0  0  0  0  0
    3.5724   -0.4125    0.0000 C   0  0  0  0  0  0  0  0  0  0  0  0
    3.5724   -1.2375    0.0000 C   0  0  0  0  0  0  0  0  0  0  0  0
    2.8579   -1.6500    0.0000 C   0  0  0  0  0  0  0  0  0  0  0  0
    2.8579   -2.4750    0.0000 O   0  0  0  0  0  0  0  0  0  0  0  0
    2.1434   -1.2375    0.0000 C   0  0  0  0  0  0  0  0  0  0  0  0
    1.4289   -1.6500    0.0000 C   0  0  0  0  0  0  0  0  0  0  0  0
    1.4289   -2.4750    0.0000 O   0  0  0  0  0  0  0  0  0  0  0  0
    4.2868   -0.0000    0.0000 C   0  0  0  0  0  0  0  0  0  0  0  0
    4.2868    0.8250    0.0000 C   0  0  0  0  0  0  0  0  0  0  0  0
    5.0013    1.2375    0.0000 C   0  0  0  0  0  0  0  0  0  0  0  0
    5.7158    0.8250    0.0000 C   0  0  0  0  0  0  0  0  0  0  0  0
    5.7158   -0.0000    0.0000 C   0  0  0  0  0  0  0  0  0  0  0  0
    5.0013   -0.4125    0.0000 C   0  0  0  0  0  0  0  0  0  0  0  0
  1  2  1  0  0  0  0
  2  3  1  0  0  0  0
  3  4  1  0  0  0  0
  4  5  2  0  0  0  0
  4 15  1  0  0  0  0
  5  6  1  0  0  0  0
  5  7  1  0  0  0  0
  7  8  2  0  0  0  0
  8  9  1  0  0  0  0
  8 14  1  0  0  0  0
  9 10  1  0  0  0  0
 10 11  2  0  0  0  0
 10 17  1  0  0  0  0
 11 12  1  0  0  0  0
 12 13  2  0  0  0  0
 12 14  1  0  0  0  0
 14 15  2  0  0  0  0
 15 16  1  0  0  0  0
 17 18  2  0  0  0  0
 17 22  1  0  0  0  0
 18 19  1  0  0  0  0
 19 20  2  0  0  0  0
 20 21  1  0  0  0  0
 21 22  2  0  0  0  0
M  END
$$$$

 OpenBabel12191814062D

 23 25  0  0  0  0  0  0  0  0999 V2000
   -0.7145   -2.8875    0.0000 C   0  0  0  0  0  0  0  0  0  0  0  0
    0.0000   -2.4750    0.0000 C   0  0  0  0  0  0  0  0  0  0  0  0
    0.0000   -1.6500    0.0000 O   0  0  0  0  0  0  0  0  0  0  0  0
    0.7145   -1.2375    0.0000 C   0  0  0  0  0  0  0  0  0  0  0  0
    0.7145   -0.4125    0.0000 C   0  0  0  0  0  0  0  0  0  0  0  0
    0.0000    0.0000    0.0000 O   0  0  0  0  0  0  0  0  0  0  0  0
    0.0000    0.8250    0.0000 C   0  0  0  0  0  0  0  0  0  0  0  0
    1.4289    0.0000    0.0000 C   0  0  0  0  0  0  0  0  0  0  0  0
    2.1434   -0.4125    0.0000 C   0  0  0  0  0  0  0  0  0  0  0  0
    2.8579    0.0000    0.0000 O   0  0  0  0  0  0  0  0  0  0  0  0
    3.5724   -0.4125    0.0000 C   0  0  0  0  0  0  0  0  0  0  0  0
    3.5724   -1.2375    0.0000 C   0  0  0  0  0  0  0  0  0  0  0  0
    2.8579   -1.6500    0.0000 C   0  0  0  0  0  0  0  0  0  0  0  0
    2.8579   -2.4750    0.0000 O   0  0  0  0  0  0  0  0  0  0  0  0
    2.1434   -1.2375    0.0000 C   0  0  0  0  0  0  0  0  0  0  0  0
    1.4289   -1.6500    0.0000 C   0  0  0  0  0  0  0  0  0  0  0  0
    1.4289   -2.4750    0.0000 O   0  0  0  0  0  0  0  0  0  0  0  0
    4.2868   -0.0000    0.0000 C   0  0  0  0  0  0  0  0  0  0  0  0
    4.2868    0.8250    0.0000 C   0  0  0  0  0  0  0  0  0  0  0  0
    5.0013    1.2375    0.0000 C   0  0  0  0  0  0  0  0  0  0  0  0
    5.7158    0.8250    0.0000 C   0  0  0  0  0  0  0  0  0  0  0  0
    5.7158   -0.0000    0.0000 C   0  0  0  0  0  0  0  0  0  0  0  0
    5.0013   -0.4125    0.0000 C   0  0  0  0  0  0  0  0  0  0  0  0
  1  2  1  0  0  0  0
  2  3  1  0  0  0  0
  3  4  1  0  0  0  0
  4  5  2  0  0  0  0
  4 16  1  0  0  0  0
  5  6  1  0  0  0  0
  5  8  1  0  0  0  0
  6  7  1  0  0  0  0
  8  9  2  0  0  0  0
  9 10  1  0  0  0  0
  9 15  1  0  0  0  0
 10 11  1  0  0  0  0
 11 12  2  0  0  0  0
 11 18  1  0  0  0  0
 12 13  1  0  0  0  0
 13 14  2  0  0  0  0
 13 15  1  0  0  0  0
 15 16  2  0  0  0  0
 16 17  1  0  0  0  0
 18 19  2  0  0  0  0
 18 23  1  0  0  0  0
 19 20  1  0  0  0  0
 20 21  2  0  0  0  0
 21 22  1  0  0  0  0
 22 23  2  0  0  0  0
M  END
$$$$

 OpenBabel12191814062D

 37 38  0  0  0  0  0  0  0  0999 V2000
   -0.7145   -1.2375    0.0000 C   0  0  0  0  0  0  0  0  0  0  0  0
   -0.7145   -2.0625    0.0000 C   0  0  0  0  0  0  0  0  0  0  0  0
    0.0000   -2.4750    0.0000 O   0  0  0  0  0  0  0  0  0  0  0  0
    0.0000   -3.3000    0.0000 C   0  0  0  0  0  0  0  0  0  0  0  0
    0.7145   -3.7125    0.0000 C   0  0  0  0  0  0  0  0  0  0  0  0
    0.7145   -4.5375    0.0000 C   0  0  0  0  0  0  0  0  0  0  0  0
    1.4289   -4.9500    0.0000 C   0  0  0  0  0  0  0  0  0  0  0  0
    2.1434   -4.5375    0.0000 C   0  0  0  0  0  0  0  0  0  0  0  0
    2.8579   -4.9500    0.0000 N   0  0  0  0  0  0  0  0  0  0  0  0
    2.8579   -5.7750    0.0000 C   0  0  0  0  0  0  0  0  0  0  0  0
    3.5724   -4.5375    0.0000 C   0  0  0  0  0  0  0  0  0  0  0  0
    4.2868   -4.9500    0.0000 C   0  0  0  0  0  0  0  0  0  0  0  0
    5.0013   -4.5375    0.0000 C   0  0  0  0  0  0  0  0  0  0  0  0
    5.7158   -4.9500    0.0000 C   0  0  3  0  0  0  0  0  0  0  0  0
    5.3033   -5.6645    0.0000 C   0  0  0  0  0  0  0  0  0  0  0  0
    4.8908   -6.3789    0.0000 N   0  0  0  0  0  0  0  0  0  0  0  0
    6.1283   -4.2355    0.0000 C   0  0  0  0  0  0  0  0  0  0  0  0
    6.9533   -4.2355    0.0000 C   0  0  0  0  0  0  0  0  0  0  0  0
    5.7158   -3.5211    0.0000 C   0  0  0  0  0  0  0  0  0  0  0  0
    6.4302   -5.3625    0.0000 C   0  0  0  0  0  0  0  0  0  0  0  0
    7.1447   -4.9500    0.0000 C   0  0  0  0  0  0  0  0  0  0  0  0
    7.8592   -5.3625    0.0000 C   0  0  0  0  0  0  0  0  0  0  0  0
    8.5737   -4.9500    0.0000 O   0  0  0  0  0  0  0  0  0  0  0  0
    9.2881   -5.3625    0.0000 C   0  0  0  0  0  0  0  0  0  0  0  0
   10.0026   -4.9500    0.0000 C   0  0  0  0  0  0  0  0  0  0  0  0
    7.8592   -6.1875    0.0000 C   0  0  0  0  0  0  0  0  0  0  0  0
    7.1447   -6.6000    0.0000 C   0  0  0  0  0  0  0  0  0  0  0  0
    7.1447   -7.4250    0.0000 O   0  0  0  0  0  0  0  0  0  0  0  0
    7.8592   -7.8375    0.0000 C   0  0  0  0  0  0  0  0  0  0  0  0
    7.8592   -8.6625    0.0000 C   0  0  0  0  0  0  0  0  0  0  0  0
    6.4302   -6.1875    0.0000 C   0  0  0  0  0  0  0  0  0  0  0  0
    0.0000   -4.9500    0.0000 C   0  0  0  0  0  0  0  0  0  0  0  0
   -0.7145   -4.5375    0.0000 C   0  0  0  0  0  0  0  0  0  0  0  0
   -1.4289   -4.9500    0.0000 O   0  0  0  0  0  0  0  0  0  0  0  0
   -1.4289   -5.7750    0.0000 C   0  0  0  0  0  0  0  0  0  0  0  0
   -2.1434   -6.1875    0.0000 C   0  0  0  0  0  0  0  0  0  0  0  0
   -0.7145   -3.7125    0.0000 C   0  0  0  0  0  0  0  0  0  0  0  0
  1  2  1  0  0  0  0
  2  3  1  0  0  0  0
  3  4  1  0  0  0  0
  4  5  2  0  0  0  0
  4 37  1  0  0  0  0
  5  6  1  0  0  0  0
  6  7  1  0  0  0  0
  6 32  2  0  0  0  0
  7  8  1  0  0  0  0
  8  9  1  0  0  0  0
  9 10  1  0  0  0  0
  9 11  1  0  0  0  0
 11 12  1  0  0  0  0
 12 13  1  0  0  0  0
 13 14  1  0  0  0  0
 14 15  1  0  0  0  0
 14 17  1  0  0  0  0
 14 20  1  0  0  0  0
 15 16  3  0  0  0  0
 17 18  1  0  0  0  0
 17 19  1  0  0  0  0
 20 21  2  0  0  0  0
 20 31  1  0  0  0  0
 21 22  1  0  0  0  0
 22 23  1  0  0  0  0
 22 26  2  0  0  0  0
 23 24  1  0  0  0  0
 24 25  1  0  0  0  0
 26 27  1  0  0  0  0
 27 28  1  0  0  0  0
 27 31  2  0  0  0  0
 28 29  1  0  0  0  0
 29 30  1  0  0  0  0
 32 33  1  0  0  0  0
 33 34  1  0  0  0  0
 33 37  2  0  0  0  0
 34 35  1  0  0  0  0
 35 36  1  0  0  0  0
M  END
$$$$

 OpenBabel12191814062D

 35 38  0  0  0  0  0  0  0  0999 V2000
   -1.3480    0.0809    0.0000 C   0  0  0  0  0  0  0  0  0  0  0  0
   -0.9355   -0.6336    0.0000 C   0  0  0  0  0  0  0  0  0  0  0  0
   -0.1105   -0.6336    0.0000 O   0  0  0  0  0  0  0  0  0  0  0  0
    0.3020   -1.3480    0.0000 C   0  0  0  0  0  0  0  0  0  0  0  0
    1.1270   -1.3480    0.0000 C   0  0  0  0  0  0  0  0  0  0  0  0
    1.5395   -2.0625    0.0000 C   0  0  0  0  0  0  0  0  0  0  0  0
    2.3645   -2.0625    0.0000 C   0  0  3  0  0  0  0  0  0  0  0  0
    2.7770   -1.3480    0.0000 C   0  0  0  0  0  0  0  0  0  0  0  0
    3.6020   -1.3480    0.0000 N   0  0  0  0  0  0  0  0  0  0  0  0
    4.0145   -0.6336    0.0000 C   0  0  0  0  0  0  0  0  0  0  0  0
    4.0145   -2.0625    0.0000 C   0  0  0  0  0  0  0  0  0  0  0  0
    3.6020   -2.7770    0.0000 C   0  0  0  0  0  0  0  0  0  0  0  0
    2.7770   -2.7770    0.0000 C   0  0  3  0  0  0  0  0  0  0  0  0
    2.3645   -3.4914    0.0000 N   0  0  0  0  0  0  0  0  0  0  0  0
    1.5395   -3.4914    0.0000 C   0  0  0  0  0  0  0  0  0  0  0  0
    1.1270   -4.2059    0.0000 C   0  0  0  0  0  0  0  0  0  0  0  0
    1.5395   -4.9204    0.0000 C   0  0  0  0  0  0  0  0  0  0  0  0
    1.1270   -5.6349    0.0000 C   0  0  0  0  0  0  0  0  0  0  0  0
    0.3020   -5.6349    0.0000 C   0  0  0  0  0  0  0  0  0  0  0  0
   -0.1105   -4.9204    0.0000 C   0  0  0  0  0  0  0  0  0  0  0  0
    0.3020   -4.2059    0.0000 C   0  0  0  0  0  0  0  0  0  0  0  0
   -0.1105   -6.3493    0.0000 C   0  0  0  0  0  0  0  0  0  0  0  0
   -0.9355   -6.3493    0.0000 O   0  0  0  0  0  0  0  0  0  0  0  0
    0.3020   -7.0638    0.0000 N   0  0  0  0  0  0  0  0  0  0  0  0
   -0.1105   -7.7783    0.0000 C   0  0  0  0  0  0  0  0  0  0  0  0
    0.3020   -8.4927    0.0000 C   0  0  0  0  0  0  0  0  0  0  0  0
   -0.9355   -7.7783    0.0000 C   0  0  0  0  0  0  0  0  0  0  0  0
    1.1270   -7.0638    0.0000 C   0  0  0  0  0  0  0  0  0  0  0  0
    1.5395   -7.7783    0.0000 C   0  0  0  0  0  0  0  0  0  0  0  0
    1.5395   -6.3493    0.0000 C   0  0  0  0  0  0  0  0  0  0  0  0
    1.1270   -2.7770    0.0000 C   0  0  0  0  0  0  0  0  0  0  0  0
    0.3020   -2.7770    0.0000 C   0  0  0  0  0  0  0  0  0  0  0  0
   -0.1105   -2.0625    0.0000 C   0  0  0  0  0  0  0  0  0  0  0  0
   -0.9355   -2.0625    0.0000 O   0  0  0  0  0  0  0  0  0  0  0  0
   -1.3480   -1.3480    0.0000 C   0  0  0  0  0  0  0  0  0  0  0  0
  1  2  1  0  0  0  0
  2  3  1  0  0  0  0
  3  4  1  0  0  0  0
  4  5  2  0  0  0  0
  4 33  1  0  0  0  0
  5  6  1  0  0  0  0
  6  7  1  0  0  0  0
  6 31  2  0  0  0  0
  7  8  1  0  0  0  0
  7 13  1  0  0  0  0
  8  9  1  0  0  0  0
  9 10  1  0  0  0  0
  9 11  1  0  0  0  0
 11 12  1  0  0  0  0
 12 13  1  0  0  0  0
 13 14  1  0  0  0  0
 14 15  2  0  0  0  0
 15 16  1  0  0  0  0
 15 31  1  0  0  0  0
 16 17  2  0  0  0  0
 16 21  1  0  0  0  0
 17 18  1  0  0  0  0
 18 19  2  0  0  0  0
 19 20  1  0  0  0  0
 19 22  1  0  0  0  0
 20 21  2  0  0  0  0
 22 23  2  0  0  0  0
 22 24  1  0  0  0  0
 24 25  1  0  0  0  0
 24 28  1  0  0  0  0
 25 26  1  0  0  0  0
 25 27  1  0  0  0  0
 28 29  1  0  0  0  0
 28 30  1  0  0  0  0
 31 32  1  0  0  0  0
 32 33  2  0  0  0  0
 33 34  1  0  0  0  0
 34 35  1  0  0  0  0
M  END
$$$$

 OpenBabel12191814062D

 24 26  0  0  0  0  0  0  0  0999 V2000
   -1.4289    0.0000    0.0000 C   0  0  0  0  0  0  0  0  0  0  0  0
   -0.7145   -0.4125    0.0000 C   0  0  0  0  0  0  0  0  0  0  0  0
    0.0000    0.0000    0.0000 O   0  0  0  0  0  0  0  0  0  0  0  0
    0.7145   -0.4125    0.0000 C   0  0  0  0  0  0  0  0  0  0  0  0
    1.4289    0.0000    0.0000 C   0  0  0  0  0  0  0  0  0  0  0  0
    2.1434   -0.4125    0.0000 C   0  0  0  0  0  0  0  0  0  0  0  0
    2.8579    0.0000    0.0000 O   0  0  0  0  0  0  0  0  0  0  0  0
    3.5724   -0.4125    0.0000 C   0  0  0  0  0  0  0  0  0  0  0  0
    3.5724   -1.2375    0.0000 C   0  0  0  0  0  0  0  0  0  0  0  0
    2.8579   -1.6500    0.0000 C   0  0  0  0  0  0  0  0  0  0  0  0
    2.8579   -2.4750    0.0000 O   0  0  0  0  0  0  0  0  0  0  0  0
    2.1434   -1.2375    0.0000 C   0  0  0  0  0  0  0  0  0  0  0  0
    1.4289   -1.6500    0.0000 C   0  0  0  0  0  0  0  0  0  0  0  0
    1.4289   -2.4750    0.0000 O   0  0  0  0  0  0  0  0  0  0  0  0
    0.7145   -1.2375    0.0000 C   0  0  0  0  0  0  0  0  0  0  0  0
    0.0000   -1.6500    0.0000 O   0  0  0  0  0  0  0  0  0  0  0  0
   -0.7145   -1.2375    0.0000 C   0  0  0  0  0  0  0  0  0  0  0  0
   -1.4289   -1.6500    0.0000 C   0  0  0  0  0  0  0  0  0  0  0  0
    4.2868   -0.0000    0.0000 C   0  0  0  0  0  0  0  0  0  0  0  0
    4.2868    0.8250    0.0000 C   0  0  0  0  0  0  0  0  0  0  0  0
    5.0013    1.2375    0.0000 C   0  0  0  0  0  0  0  0  0  0  0  0
    5.7158    0.8250    0.0000 C   0  0  0  0  0  0  0  0  0  0  0  0
    5.7158   -0.0000    0.0000 C   0  0  0  0  0  0  0  0  0  0  0  0
    5.0013   -0.4125    0.0000 C   0  0  0  0  0  0  0  0  0  0  0  0
  1  2  1  0  0  0  0
  2  3  1  0  0  0  0
  3  4  1  0  0  0  0
  4  5  2  0  0  0  0
  4 15  1  0  0  0  0
  5  6  1  0  0  0  0
  6  7  1  0  0  0  0
  6 12  2  0  0  0  0
  7  8  1  0  0  0  0
  8  9  2  0  0  0  0
  8 19  1  0  0  0  0
  9 10  1  0  0  0  0
 10 11  2  0  0  0  0
 10 12  1  0  0  0  0
 12 13  1  0  0  0  0
 13 14  1  0  0  0  0
 13 15  2  0  0  0  0
 15 16  1  0  0  0  0
 16 17  1  0  0  0  0
 17 18  1  0  0  0  0
 19 20  2  0  0  0  0
 19 24  1  0  0  0  0
 20 21  1  0  0  0  0
 21 22  2  0  0  0  0
 22 23  1  0  0  0  0
 23 24  2  0  0  0  0
M  END
$$$$

 OpenBabel12191814062D

 25 27  0  0  0  0  0  0  0  0999 V2000
   -1.4289    0.0000    0.0000 C   0  0  0  0  0  0  0  0  0  0  0  0
   -0.7145   -0.4125    0.0000 C   0  0  0  0  0  0  0  0  0  0  0  0
    0.0000    0.0000    0.0000 O   0  0  0  0  0  0  0  0  0  0  0  0
    0.7145   -0.4125    0.0000 C   0  0  0  0  0  0  0  0  0  0  0  0
    1.4289    0.0000    0.0000 C   0  0  0  0  0  0  0  0  0  0  0  0
    2.1434   -0.4125    0.0000 C   0  0  0  0  0  0  0  0  0  0  0  0
    2.8579    0.0000    0.0000 O   0  0  0  0  0  0  0  0  0  0  0  0
    3.5724   -0.4125    0.0000 C   0  0  0  0  0  0  0  0  0  0  0  0
    3.5724   -1.2375    0.0000 C   0  0  0  0  0  0  0  0  0  0  0  0
    2.8579   -1.6500    0.0000 C   0  0  0  0  0  0  0  0  0  0  0  0
    2.8579   -2.4750    0.0000 O   0  0  0  0  0  0  0  0  0  0  0  0
    2.1434   -1.2375    0.0000 C   0  0  0  0  0  0  0  0  0  0  0  0
    1.4289   -1.6500    0.0000 C   0  0  0  0  0  0  0  0  0  0  0  0
    1.4289   -2.4750    0.0000 O   0  0  0  0  0  0  0  0  0  0  0  0
    0.7145   -2.8875    0.0000 C   0  0  0  0  0  0  0  0  0  0  0  0
    0.7145   -1.2375    0.0000 C   0  0  0  0  0  0  0  0  0  0  0  0
    0.0000   -1.6500    0.0000 O   0  0  0  0  0  0  0  0  0  0  0  0
   -0.7145   -1.2375    0.0000 C   0  0  0  0  0  0  0  0  0  0  0  0
   -1.4289   -1.6500    0.0000 C   0  0  0  0  0  0  0  0  0  0  0  0
    4.2868   -0.0000    0.0000 C   0  0  0  0  0  0  0  0  0  0  0  0
    4.2868    0.8250    0.0000 C   0  0  0  0  0  0  0  0  0  0  0  0
    5.0013    1.2375    0.0000 C   0  0  0  0  0  0  0  0  0  0  0  0
    5.7158    0.8250    0.0000 C   0  0  0  0  0  0  0  0  0  0  0  0
    5.7158   -0.0000    0.0000 C   0  0  0  0  0  0  0  0  0  0  0  0
    5.0013   -0.4125    0.0000 C   0  0  0  0  0  0  0  0  0  0  0  0
  1  2  1  0  0  0  0
  2  3  1  0  0  0  0
  3  4  1  0  0  0  0
  4  5  2  0  0  0  0
  4 16  1  0  0  0  0
  5  6  1  0  0  0  0
  6  7  1  0  0  0  0
  6 12  2  0  0  0  0
  7  8  1  0  0  0  0
  8  9  2  0  0  0  0
  8 20  1  0  0  0  0
  9 10  1  0  0  0  0
 10 11  2  0  0  0  0
 10 12  1  0  0  0  0
 12 13  1  0  0  0  0
 13 14  1  0  0  0  0
 13 16  2  0  0  0  0
 14 15  1  0  0  0  0
 16 17  1  0  0  0  0
 17 18  1  0  0  0  0
 18 19  1  0  0  0  0
 20 21  2  0  0  0  0
 20 25  1  0  0  0  0
 21 22  1  0  0  0  0
 22 23  2  0  0  0  0
 23 24  1  0  0  0  0
 24 25  2  0  0  0  0
M  END
$$$$

 OpenBabel12191814062D

 31 34  0  0  0  0  0  0  0  0999 V2000
   -2.1434   -7.8375    0.0000 C   0  0  0  0  0  0  0  0  0  0  0  0
   -2.8579   -7.4250    0.0000 C   0  0  0  0  0  0  0  0  0  0  0  0
   -2.8579   -6.6000    0.0000 O   0  0  0  0  0  0  0  0  0  0  0  0
   -3.5724   -6.1875    0.0000 C   0  0  0  0  0  0  0  0  0  0  0  0
   -4.2868   -6.6000    0.0000 C   0  0  0  0  0  0  0  0  0  0  0  0
   -5.0013   -6.1875    0.0000 C   0  0  0  0  0  0  0  0  0  0  0  0
   -5.0013   -5.3625    0.0000 C   0  0  0  0  0  0  0  0  0  0  0  0
   -4.2868   -4.9500    0.0000 C   0  0  0  0  0  0  0  0  0  0  0  0
   -3.5724   -5.3625    0.0000 C   0  0  0  0  0  0  0  0  0  0  0  0
   -2.8579   -4.9500    0.0000 N   0  0  0  0  0  0  0  0  0  0  0  0
   -2.8579   -4.1250    0.0000 C   0  0  0  0  0  0  0  0  0  0  0  0
   -2.1434   -3.7125    0.0000 C   0  0  0  0  0  0  0  0  0  0  0  0
   -1.4289   -4.1250    0.0000 N   0  0  0  0  0  0  0  0  0  0  0  0
   -0.7145   -3.7125    0.0000 C   0  0  0  0  0  0  0  0  0  0  0  0
   -0.7145   -2.8875    0.0000 C   0  0  3  0  0  0  0  0  0  0  0  0
   -1.4289   -2.4750    0.0000 O   0  0  0  0  0  0  0  0  0  0  0  0
    0.0000   -2.4750    0.0000 C   0  0  0  0  0  0  0  0  0  0  0  0
    0.0000   -1.6500    0.0000 O   0  0  0  0  0  0  0  0  0  0  0  0
    0.7145   -1.2375    0.0000 C   0  0  0  0  0  0  0  0  0  0  0  0
    0.7145   -0.4125    0.0000 C   0  0  0  0  0  0  0  0  0  0  0  0
    1.4289    0.0000    0.0000 C   0  0  0  0  0  0  0  0  0  0  0  0
    2.1434   -0.4125    0.0000 C   0  0  0  0  0  0  0  0  0  0  0  0
    2.8579    0.0000    0.0000 N   0  0  0  0  0  0  0  0  0  0  0  0
    3.5724   -0.4125    0.0000 C   0  0  0  0  0  0  0  0  0  0  0  0
    4.2868   -0.0000    0.0000 O   0  0  0  0  0  0  0  0  0  0  0  0
    3.5724   -1.2375    0.0000 C   0  0  0  0  0  0  0  0  0  0  0  0
    2.8579   -1.6500    0.0000 C   0  0  0  0  0  0  0  0  0  0  0  0
    2.1434   -1.2375    0.0000 C   0  0  0  0  0  0  0  0  0  0  0  0
    1.4289   -1.6500    0.0000 C   0  0  0  0  0  0  0  0  0  0  0  0
   -1.4289   -4.9500    0.0000 C   0  0  0  0  0  0  0  0  0  0  0  0
   -2.1434   -5.3625    0.0000 C   0  0  0  0  0  0  0  0  0  0  0  0
  1  2  1  0  0  0  0
  2  3  1  0  0  0  0
  3  4  1  0  0  0  0
  4  5  2  0  0  0  0
  4  9  1  0  0  0  0
  5  6  1  0  0  0  0
  6  7  2  0  0  0  0
  7  8  1  0  0  0  0
  8  9  2  0  0  0  0
  9 10  1  0  0  0  0
 10 11  1  0  0  0  0
 10 31  1  0  0  0  0
 11 12  1  0  0  0  0
 12 13  1  0  0  0  0
 13 14  1  0  0  0  0
 13 30  1  0  0  0  0
 14 15  1  0  0  0  0
 15 16  1  0  0  0  0
 15 17  1  0  0  0  0
 17 18  1  0  0  0  0
 18 19  1  0  0  0  0
 19 20  2  0  0  0  0
 19 29  1  0  0  0  0
 20 21  1  0  0  0  0
 21 22  2  0  0  0  0
 22 23  1  0  0  0  0
 22 28  1  0  0  0  0
 23 24  1  0  0  0  0
 24 25  2  0  0  0  0
 24 26  1  0  0  0  0
 26 27  1  0  0  0  0
 27 28  1  0  0  0  0
 28 29  2  0  0  0  0
 30 31  1  0  0  0  0
M  END
$$$$

 OpenBabel12191814062D

 25 27  0  0  0  0  0  0  0  0999 V2000
    2.0367   -2.9491    0.0000 C   0  0  0  0  0  0  0  0  0  0  0  0
    1.3222   -2.5366    0.0000 C   0  0  0  0  0  0  0  0  0  0  0  0
    1.3222   -1.7116    0.0000 O   0  0  0  0  0  0  0  0  0  0  0  0
    0.6078   -1.2991    0.0000 C   0  0  0  0  0  0  0  0  0  0  0  0
   -0.1067   -1.7116    0.0000 C   0  0  0  0  0  0  0  0  0  0  0  0
   -0.8212   -1.2991    0.0000 C   0  0  0  0  0  0  0  0  0  0  0  0
   -0.8212   -0.4741    0.0000 C   0  0  0  0  0  0  0  0  0  0  0  0
   -0.1067   -0.0616    0.0000 C   0  0  0  0  0  0  0  0  0  0  0  0
    0.6078   -0.4741    0.0000 C   0  0  0  0  0  0  0  0  0  0  0  0
    1.3222   -0.0616    0.0000 N   0  0  0  0  0  0  0  0  0  0  0  0
    1.3222    0.7634    0.0000 C   0  0  0  0  0  0  0  0  0  0  0  0
    0.6078    1.1759    0.0000 O   0  0  0  0  0  0  0  0  0  0  0  0
    2.0367    1.1759    0.0000 C   0  0  0  0  0  0  0  0  0  0  0  0
    2.0367    2.0009    0.0000 C   0  0  0  0  0  0  0  0  0  0  0  0
    1.3222    2.4134    0.0000 C   0  0  0  0  0  0  0  0  0  0  0  0
    2.7512    2.4134    0.0000 N   0  0  0  0  0  0  0  0  0  0  0  0
    3.4656    2.0009    0.0000 C   0  0  0  0  0  0  0  0  0  0  0  0
    4.1801    2.4134    0.0000 S   0  0  0  0  0  0  0  0  0  0  0  0
    3.4656    1.1759    0.0000 N   0  0  0  0  0  0  0  0  0  0  0  0
    2.7512    0.7634    0.0000 C   0  0  3  0  0  0  0  0  0  0  0  0
    2.7512   -0.0616    0.0000 C   0  0  0  0  0  0  0  0  0  0  0  0
    3.4186   -0.5465    0.0000 C   0  0  0  0  0  0  0  0  0  0  0  0
    3.1637   -1.3312    0.0000 C   0  0  0  0  0  0  0  0  0  0  0  0
    2.3387   -1.3312    0.0000 C   0  0  0  0  0  0  0  0  0  0  0  0
    2.0837   -0.5465    0.0000 S   0  0  0  0  0  0  0  0  0  0  0  0
  1  2  1  0  0  0  0
  2  3  1  0  0  0  0
  3  4  1  0  0  0  0
  4  5  2  0  0  0  0
  4  9  1  0  0  0  0
  5  6  1  0  0  0  0
  6  7  2  0  0  0  0
  7  8  1  0  0  0  0
  8  9  2  0  0  0  0
  9 10  1  0  0  0  0
 10 11  1  0  0  0  0
 11 12  2  0  0  0  0
 11 13  1  0  0  0  0
 13 14  2  0  0  0  0
 13 20  1  0  0  0  0
 14 15  1  0  0  0  0
 14 16  1  0  0  0  0
 16 17  1  0  0  0  0
 17 18  2  0  0  0  0
 17 19  1  0  0  0  0
 19 20  1  0  0  0  0
 20 21  1  0  0  0  0
 21 22  2  0  0  0  0
 21 25  1  0  0  0  0
 22 23  1  0  0  0  0
 23 24  2  0  0  0  0
 24 25  1  0  0  0  0
M  END
$$$$

 OpenBabel12191814062D

 23 25  0  0  0  0  0  0  0  0999 V2000
   -0.7145    2.0625    0.0000 C   0  0  0  0  0  0  0  0  0  0  0  0
   -0.7145    1.2375    0.0000 C   0  0  0  0  0  0  0  0  0  0  0  0
   -1.4289    0.8250    0.0000 O   0  0  0  0  0  0  0  0  0  0  0  0
   -1.4289    0.0000    0.0000 C   0  0  0  0  0  0  0  0  0  0  0  0
   -0.7145   -0.4125    0.0000 C   0  0  0  0  0  0  0  0  0  0  0  0
   -0.7145   -1.2375    0.0000 C   0  0  0  0  0  0  0  0  0  0  0  0
   -1.4289   -1.6500    0.0000 C   0  0  0  0  0  0  0  0  0  0  0  0
   -2.1434   -1.2375    0.0000 C   0  0  0  0  0  0  0  0  0  0  0  0
   -2.1434   -0.4125    0.0000 C   0  0  0  0  0  0  0  0  0  0  0  0
   -2.8579    0.0000    0.0000 O   0  0  0  0  0  0  0  0  0  0  0  0
   -3.5724   -0.4125    0.0000 C   0  0  3  0  0  0  0  0  0  0  0  0
   -4.2868    0.0000    0.0000 C   0  0  3  0  0  0  0  0  0  0  0  0
   -5.0013   -0.4125    0.0000 C   0  0  0  0  0  0  0  0  0  0  0  0
   -5.7158    0.0000    0.0000 N   0  0  0  0  0  0  0  0  0  0  0  0
   -5.7158    0.8250    0.0000 C   0  0  0  0  0  0  0  0  0  0  0  0
   -5.0013    1.2375    0.0000 C   0  0  0  0  0  0  0  0  0  0  0  0
   -4.2868    0.8250    0.0000 O   0  0  0  0  0  0  0  0  0  0  0  0
   -3.5724   -1.2375    0.0000 C   0  0  0  0  0  0  0  0  0  0  0  0
   -2.8579   -1.6500    0.0000 C   0  0  0  0  0  0  0  0  0  0  0  0
   -2.8579   -2.4750    0.0000 C   0  0  0  0  0  0  0  0  0  0  0  0
   -3.5724   -2.8875    0.0000 C   0  0  0  0  0  0  0  0  0  0  0  0
   -4.2868   -2.4750    0.0000 C   0  0  0  0  0  0  0  0  0  0  0  0
   -4.2868   -1.6500    0.0000 C   0  0  0  0  0  0  0  0  0  0  0  0
  1  2  1  0  0  0  0
  2  3  1  0  0  0  0
  3  4  1  0  0  0  0
  4  5  2  0  0  0  0
  4  9  1  0  0  0  0
  5  6  1  0  0  0  0
  6  7  2  0  0  0  0
  7  8  1  0  0  0  0
  8  9  2  0  0  0  0
  9 10  1  0  0  0  0
 10 11  1  0  0  0  0
 11 12  1  0  0  0  0
 11 18  1  0  0  0  0
 12 13  1  0  0  0  0
 12 17  1  0  0  0  0
 13 14  1  0  0  0  0
 14 15  1  0  0  0  0
 15 16  1  0  0  0  0
 16 17  1  0  0  0  0
 18 19  2  0  0  0  0
 18 23  1  0  0  0  0
 19 20  1  0  0  0  0
 20 21  2  0  0  0  0
 21 22  1  0  0  0  0
 22 23  2  0  0  0  0
M  END
$$$$

 OpenBabel12191814062D

 33 34  0  0  0  0  0  0  0  0999 V2000
   -5.0013   -6.1875    0.0000 C   0  0  0  0  0  0  0  0  0  0  0  0
   -5.0013   -5.3625    0.0000 C   0  0  0  0  0  0  0  0  0  0  0  0
   -4.2868   -4.9500    0.0000 O   0  0  0  0  0  0  0  0  0  0  0  0
   -4.2868   -4.1250    0.0000 C   0  0  0  0  0  0  0  0  0  0  0  0
   -3.5724   -3.7125    0.0000 C   0  0  0  0  0  0  0  0  0  0  0  0
   -3.5724   -2.8875    0.0000 O   0  0  0  0  0  0  0  0  0  0  0  0
   -2.8579   -2.4750    0.0000 C   0  0  0  0  0  0  0  0  0  0  0  0
   -2.1434   -2.8875    0.0000 O   0  0  0  0  0  0  0  0  0  0  0  0
   -2.8579   -1.6500    0.0000 C   0  0  0  0  0  0  0  0  0  0  0  0
   -3.5724   -1.2375    0.0000 C   0  0  0  0  0  0  0  0  0  0  0  0
   -4.2868   -1.6500    0.0000 C   0  0  0  0  0  0  0  0  0  0  0  0
   -3.5724   -0.4125    0.0000 N   0  0  0  0  0  0  0  0  0  0  0  0
   -2.8579    0.0000    0.0000 C   0  0  0  0  0  0  0  0  0  0  0  0
   -2.8579    0.8250    0.0000 C   0  0  0  0  0  0  0  0  0  0  0  0
   -2.1434   -0.4125    0.0000 C   0  0  0  0  0  0  0  0  0  0  0  0
   -2.1434   -1.2375    0.0000 C   0  0  3  0  0  0  0  0  0  0  0  0
   -1.4289   -1.6500    0.0000 C   0  0  0  0  0  0  0  0  0  0  0  0
   -0.7145   -1.2375    0.0000 C   0  0  0  0  0  0  0  0  0  0  0  0
    0.0000   -1.6500    0.0000 C   0  0  0  0  0  0  0  0  0  0  0  0
    0.0000   -2.4750    0.0000 C   0  0  0  0  0  0  0  0  0  0  0  0
   -0.7145   -2.8875    0.0000 C   0  0  0  0  0  0  0  0  0  0  0  0
   -1.4289   -2.4750    0.0000 C   0  0  0  0  0  0  0  0  0  0  0  0
   -0.7145   -3.7125    0.0000 N   0  3  0  0  0  0  0  0  0  0  0  0
   -1.4289   -4.1250    0.0000 O   0  5  0  0  0  0  0  0  0  0  0  0
    0.0000   -4.1250    0.0000 O   0  0  0  0  0  0  0  0  0  0  0  0
   -1.4289   -0.0000    0.0000 C   0  0  0  0  0  0  0  0  0  0  0  0
   -1.4289    0.8250    0.0000 O   0  0  0  0  0  0  0  0  0  0  0  0
   -0.7145   -0.4125    0.0000 O   0  0  0  0  0  0  0  0  0  0  0  0
    0.0000   -0.0000    0.0000 C   0  0  0  0  0  0  0  0  0  0  0  0
    0.7145   -0.4125    0.0000 C   0  0  0  0  0  0  0  0  0  0  0  0
    1.4289   -0.0000    0.0000 O   0  0  0  0  0  0  0  0  0  0  0  0
    2.1434   -0.4125    0.0000 C   0  0  0  0  0  0  0  0  0  0  0  0
    2.8579   -0.0000    0.0000 C   0  0  0  0  0  0  0  0  0  0  0  0
  1  2  1  0  0  0  0
  2  3  1  0  0  0  0
  3  4  1  0  0  0  0
  4  5  1  0  0  0  0
  5  6  1  0  0  0  0
  6  7  1  0  0  0  0
  7  8  2  0  0  0  0
  7  9  1  0  0  0  0
  9 10  2  0  0  0  0
  9 16  1  0  0  0  0
 10 11  1  0  0  0  0
 10 12  1  0  0  0  0
 12 13  1  0  0  0  0
 13 14  1  0  0  0  0
 13 15  2  0  0  0  0
 15 16  1  0  0  0  0
 15 26  1  0  0  0  0
 16 17  1  0  0  0  0
 17 18  2  0  0  0  0
 17 22  1  0  0  0  0
 18 19  1  0  0  0  0
 19 20  2  0  0  0  0
 20 21  1  0  0  0  0
 21 22  2  0  0  0  0
 21 23  1  0  0  0  0
 23 24  1  0  0  0  0
 23 25  2  0  0  0  0
 26 27  2  0  0  0  0
 26 28  1  0  0  0  0
 28 29  1  0  0  0  0
 29 30  1  0  0  0  0
 30 31  1  0  0  0  0
 31 32  1  0  0  0  0
 32 33  1  0  0  0  0
M  CHG  2  23   1  24  -1
M  END
$$$$

 OpenBabel12191814062D

 39 41  0  0  0  0  0  0  0  0999 V2000
   -2.0625   -0.9355    0.0000 C   0  0  0  0  0  0  0  0  0  0  0  0
   -1.2375   -0.9355    0.0000 C   0  0  0  0  0  0  0  0  0  0  0  0
   -0.8250   -1.6500    0.0000 O   0  0  0  0  0  0  0  0  0  0  0  0
    0.0000   -1.6500    0.0000 P   0  0  3  0  0  0  0  0  0  0  0  0
    0.8250   -1.6500    0.0000 O   0  0  0  0  0  0  0  0  0  0  0  0
    0.0000   -0.8250    0.0000 N   0  0  0  0  0  0  0  0  0  0  0  0
    0.7145   -0.4125    0.0000 C   0  0  0  0  0  0  0  0  0  0  0  0
   -0.7145   -0.4125    0.0000 C   0  0  0  0  0  0  0  0  0  0  0  0
    0.0000   -2.4750    0.0000 C   0  0  0  0  0  0  0  0  0  0  0  0
   -0.7145   -2.8875    0.0000 C   0  0  0  0  0  0  0  0  0  0  0  0
   -1.4289   -2.4750    0.0000 C   0  0  0  0  0  0  0  0  0  0  0  0
   -0.7145   -3.7125    0.0000 N   0  0  0  0  0  0  0  0  0  0  0  0
    0.0000   -4.1250    0.0000 C   0  0  0  0  0  0  0  0  0  0  0  0
    0.0000   -4.9500    0.0000 C   0  0  0  0  0  0  0  0  0  0  0  0
    0.7145   -3.7125    0.0000 C   0  0  0  0  0  0  0  0  0  0  0  0
    0.7145   -2.8875    0.0000 C   0  0  3  0  0  0  0  0  0  0  0  0
    1.4289   -2.4750    0.0000 C   0  0  0  0  0  0  0  0  0  0  0  0
    2.1434   -2.8875    0.0000 C   0  0  0  0  0  0  0  0  0  0  0  0
    2.8579   -2.4750    0.0000 C   0  0  0  0  0  0  0  0  0  0  0  0
    2.8579   -1.6500    0.0000 C   0  0  0  0  0  0  0  0  0  0  0  0
    2.1434   -1.2375    0.0000 C   0  0  0  0  0  0  0  0  0  0  0  0
    1.4289   -1.6500    0.0000 C   0  0  0  0  0  0  0  0  0  0  0  0
    2.1434   -0.4125    0.0000 N   0  3  0  0  0  0  0  0  0  0  0  0
    1.4289   -0.0000    0.0000 O   0  5  0  0  0  0  0  0  0  0  0  0
    2.8579   -0.0000    0.0000 O   0  0  0  0  0  0  0  0  0  0  0  0
    1.4289   -4.1250    0.0000 C   0  0  0  0  0  0  0  0  0  0  0  0
    1.4289   -4.9500    0.0000 O   0  0  0  0  0  0  0  0  0  0  0  0
    2.1434   -3.7125    0.0000 O   0  0  0  0  0  0  0  0  0  0  0  0
    2.8579   -4.1250    0.0000 C   0  0  0  0  0  0  0  0  0  0  0  0
    3.5724   -3.7125    0.0000 C   0  0  0  0  0  0  0  0  0  0  0  0
    4.2868   -4.1250    0.0000 N   0  0  0  0  0  0  0  0  0  0  0  0
    4.2868   -4.9500    0.0000 C   0  0  0  0  0  0  0  0  0  0  0  0
    5.0013   -3.7125    0.0000 C   0  0  0  0  0  0  0  0  0  0  0  0
    5.7158   -4.1250    0.0000 C   0  0  0  0  0  0  0  0  0  0  0  0
    6.4302   -3.7125    0.0000 C   0  0  0  0  0  0  0  0  0  0  0  0
    7.1447   -4.1250    0.0000 C   0  0  0  0  0  0  0  0  0  0  0  0
    7.1447   -4.9500    0.0000 C   0  0  0  0  0  0  0  0  0  0  0  0
    6.4302   -5.3625    0.0000 C   0  0  0  0  0  0  0  0  0  0  0  0
    5.7158   -4.9500    0.0000 C   0  0  0  0  0  0  0  0  0  0  0  0
  1  2  1  0  0  0  0
  2  3  1  0  0  0  0
  3  4  1  0  0  0  0
  4  5  2  0  0  0  0
  4  6  1  0  0  0  0
  4  9  1  0  0  0  0
  6  7  1  0  0  0  0
  6  8  1  0  0  0  0
  9 10  2  0  0  0  0
  9 16  1  0  0  0  0
 10 11  1  0  0  0  0
 10 12  1  0  0  0  0
 12 13  1  0  0  0  0
 13 14  1  0  0  0  0
 13 15  2  0  0  0  0
 15 16  1  0  0  0  0
 15 26  1  0  0  0  0
 16 17  1  0  0  0  0
 17 18  2  0  0  0  0
 17 22  1  0  0  0  0
 18 19  1  0  0  0  0
 19 20  2  0  0  0  0
 20 21  1  0  0  0  0
 21 22  2  0  0  0  0
 21 23  1  0  0  0  0
 23 24  1  0  0  0  0
 23 25  2  0  0  0  0
 26 27  2  0  0  0  0
 26 28  1  0  0  0  0
 28 29  1  0  0  0  0
 29 30  1  0  0  0  0
 30 31  1  0  0  0  0
 31 32  1  0  0  0  0
 31 33  1  0  0  0  0
 33 34  1  0  0  0  0
 34 35  2  0  0  0  0
 34 39  1  0  0  0  0
 35 36  1  0  0  0  0
 36 37  2  0  0  0  0
 37 38  1  0  0  0  0
 38 39  2  0  0  0  0
M  CHG  2  23   1  24  -1
M  END
$$$$

 OpenBabel12191814062D

 22 23  0  0  0  0  0  0  0  0999 V2000
   -0.7145   -4.5375    0.0000 C   0  0  0  0  0  0  0  0  0  0  0  0
   -0.7145   -3.7125    0.0000 C   0  0  0  0  0  0  0  0  0  0  0  0
    0.0000   -3.3000    0.0000 O   0  0  0  0  0  0  0  0  0  0  0  0
    0.0000   -2.4750    0.0000 P   0  0  0  0  0  0  0  0  0  0  0  0
    0.8250   -2.4750    0.0000 S   0  0  0  0  0  0  0  0  0  0  0  0
   -0.8250   -2.4750    0.0000 O   0  0  0  0  0  0  0  0  0  0  0  0
   -1.2375   -1.7605    0.0000 C   0  0  0  0  0  0  0  0  0  0  0  0
   -0.8250   -1.0461    0.0000 C   0  0  0  0  0  0  0  0  0  0  0  0
    0.0000   -1.6500    0.0000 O   0  0  0  0  0  0  0  0  0  0  0  0
    0.7145   -1.2375    0.0000 C   0  0  0  0  0  0  0  0  0  0  0  0
    0.7145   -0.4125    0.0000 C   0  0  0  0  0  0  0  0  0  0  0  0
    1.4289    0.0000    0.0000 C   0  0  0  0  0  0  0  0  0  0  0  0
    2.1434   -0.4125    0.0000 C   0  0  0  0  0  0  0  0  0  0  0  0
    2.8579    0.0000    0.0000 C   0  0  0  0  0  0  0  0  0  0  0  0
    2.8579    0.8250    0.0000 C   0  0  0  0  0  0  0  0  0  0  0  0
    3.5724   -0.4125    0.0000 C   0  0  0  0  0  0  0  0  0  0  0  0
    4.2868   -0.0000    0.0000 Cl  0  0  0  0  0  0  0  0  0  0  0  0
    3.5724   -1.2375    0.0000 C   0  0  0  0  0  0  0  0  0  0  0  0
    4.2868   -1.6500    0.0000 O   0  0  0  0  0  0  0  0  0  0  0  0
    2.8579   -1.6500    0.0000 O   0  0  0  0  0  0  0  0  0  0  0  0
    2.1434   -1.2375    0.0000 C   0  0  0  0  0  0  0  0  0  0  0  0
    1.4289   -1.6500    0.0000 C   0  0  0  0  0  0  0  0  0  0  0  0
  1  2  1  0  0  0  0
  2  3  1  0  0  0  0
  3  4  1  0  0  0  0
  4  5  2  0  0  0  0
  4  6  1  0  0  0  0
  4  9  1  0  0  0  0
  6  7  1  0  0  0  0
  7  8  1  0  0  0  0
  9 10  1  0  0  0  0
 10 11  2  0  0  0  0
 10 22  1  0  0  0  0
 11 12  1  0  0  0  0
 12 13  2  0  0  0  0
 13 14  1  0  0  0  0
 13 21  1  0  0  0  0
 14 15  1  0  0  0  0
 14 16  2  0  0  0  0
 16 17  1  0  0  0  0
 16 18  1  0  0  0  0
 18 19  2  0  0  0  0
 18 20  1  0  0  0  0
 20 21  1  0  0  0  0
 21 22  2  0  0  0  0
M  END
$$$$

 OpenBabel12191814062D

 27 30  0  0  0  0  0  0  0  0999 V2000
   -0.7145   -2.8875    0.0000 C   0  0  0  0  0  0  0  0  0  0  0  0
    0.0000   -2.4750    0.0000 C   0  0  0  0  0  0  0  0  0  0  0  0
    0.7145   -2.8875    0.0000 S   0  0  0  0  0  0  0  0  0  0  0  0
    1.4289   -2.4750    0.0000 C   0  0  0  0  0  0  0  0  0  0  0  0
    1.4289   -1.6500    0.0000 C   0  0  0  0  0  0  0  0  0  0  0  0
    2.1434   -1.2375    0.0000 C   0  0  0  0  0  0  0  0  0  0  0  0
    2.8579   -1.6500    0.0000 C   0  0  0  0  0  0  0  0  0  0  0  0
    3.5724   -1.2375    0.0000 S   0  0  0  0  0  0  0  0  0  0  0  0
    4.2868   -1.6500    0.0000 C   0  0  0  0  0  0  0  0  0  0  0  0
    5.0013   -1.2375    0.0000 C   0  0  0  0  0  0  0  0  0  0  0  0
    5.7158   -1.6500    0.0000 C   0  0  0  0  0  0  0  0  0  0  0  0
    5.7158   -2.4750    0.0000 C   0  0  0  0  0  0  0  0  0  0  0  0
    5.0013   -2.8875    0.0000 C   0  0  0  0  0  0  0  0  0  0  0  0
    4.2868   -2.4750    0.0000 C   0  0  0  0  0  0  0  0  0  0  0  0
    3.5724   -2.8875    0.0000 N   0  0  0  0  0  0  0  0  0  0  0  0
    3.5724   -3.7125    0.0000 C   0  0  0  0  0  0  0  0  0  0  0  0
    2.8579   -4.1250    0.0000 C   0  0  0  0  0  0  0  0  0  0  0  0
    2.8579   -4.9500    0.0000 C   0  0  0  0  0  0  0  0  0  0  0  0
    3.5724   -5.3625    0.0000 N   0  0  0  0  0  0  0  0  0  0  0  0
    4.2868   -4.9500    0.0000 C   0  0  0  0  0  0  0  0  0  0  0  0
    5.0013   -5.3625    0.0000 C   0  0  0  0  0  0  0  0  0  0  0  0
    5.0013   -6.1875    0.0000 N   0  0  0  0  0  0  0  0  0  0  0  0
    5.7158   -6.6000    0.0000 C   0  0  0  0  0  0  0  0  0  0  0  0
    4.2868   -6.6000    0.0000 C   0  0  0  0  0  0  0  0  0  0  0  0
    3.5724   -6.1875    0.0000 C   0  0  0  0  0  0  0  0  0  0  0  0
    2.8579   -2.4750    0.0000 C   0  0  0  0  0  0  0  0  0  0  0  0
    2.1434   -2.8875    0.0000 C   0  0  0  0  0  0  0  0  0  0  0  0
  1  2  1  0  0  0  0
  2  3  1  0  0  0  0
  3  4  1  0  0  0  0
  4  5  2  0  0  0  0
  4 27  1  0  0  0  0
  5  6  1  0  0  0  0
  6  7  2  0  0  0  0
  7  8  1  0  0  0  0
  7 26  1  0  0  0  0
  8  9  1  0  0  0  0
  9 10  2  0  0  0  0
  9 14  1  0  0  0  0
 10 11  1  0  0  0  0
 11 12  2  0  0  0  0
 12 13  1  0  0  0  0
 13 14  2  0  0  0  0
 14 15  1  0  0  0  0
 15 16  1  0  0  0  0
 15 26  1  0  0  0  0
 16 17  1  0  0  0  0
 17 18  1  0  0  0  0
 18 19  1  0  0  0  0
 19 20  1  0  0  0  0
 19 25  1  0  0  0  0
 20 21  1  0  0  0  0
 21 22  1  0  0  0  0
 22 23  1  0  0  0  0
 22 24  1  0  0  0  0
 24 25  1  0  0  0  0
 26 27  2  0  0  0  0
M  END
$$$$

 OpenBabel12191814062D

 19 21  0  0  0  0  0  0  0  0999 V2000
   -0.1357    1.3852    0.0000 Cl  0  0  0  0  0  0  0  0  0  0  0  0
    0.2667    0.5587    0.0000 C   0  0  0  0  0  0  0  0  0  0  0  0
    0.2613   -0.2662    0.0000 C   0  0  0  0  0  0  0  0  0  0  0  0
   -0.1940   -1.0606    0.0000 Cl  0  0  0  0  0  0  0  0  0  0  0  0
    0.8606   -0.6525    0.0000 C   0  0  3  0  0  0  0  0  0  0  0  0
    0.8637   -1.5232    0.0000 Cl  0  0  0  0  0  0  0  0  0  0  0  0
    1.5778   -0.2446    0.0000 C   0  0  3  0  0  0  0  0  0  0  0  0
    2.2194   -0.7632    0.0000 C   0  0  0  0  0  0  0  0  0  0  0  0
    3.0249   -0.5849    0.0000 O   0  0  0  0  0  0  0  0  0  0  0  0
    3.3877    0.1561    0.0000 S   0  0  3  0  0  0  0  0  0  0  0  0
    4.2413    0.1505    0.0000 O   0  0  0  0  0  0  0  0  0  0  0  0
    3.0346    0.9017    0.0000 O   0  0  0  0  0  0  0  0  0  0  0  0
    2.2315    1.0905    0.0000 C   0  0  0  0  0  0  0  0  0  0  0  0
    1.5831    0.5804    0.0000 C   0  0  3  0  0  0  0  0  0  0  0  0
    0.8714    0.9975    0.0000 C   0  0  3  0  0  0  0  0  0  0  0  0
    0.8896    1.8681    0.0000 Cl  0  0  0  0  0  0  0  0  0  0  0  0
    0.6597    0.1739    0.0000 C   0  0  0  0  0  0  0  0  0  0  0  0
   -0.2920    0.5384    0.0000 Cl  0  0  0  0  0  0  0  0  0  0  0  0
   -0.2966   -0.1639    0.0000 Cl  0  0  0  0  0  0  0  0  0  0  0  0
  1  2  1  0  0  0  0
  2  3  2  0  0  0  0
  2 15  1  0  0  0  0
  3  4  1  0  0  0  0
  3  5  1  0  0  0  0
  5  6  1  0  0  0  0
  5  7  1  0  0  0  0
  5 17  1  0  0  0  0
  7  8  1  0  0  0  0
  7 14  1  0  0  0  0
  8  9  1  0  0  0  0
  9 10  1  0  0  0  0
 10 11  2  0  0  0  0
 10 12  1  0  0  0  0
 12 13  1  0  0  0  0
 13 14  1  0  0  0  0
 14 15  1  0  0  0  0
 15 16  1  0  0  0  0
 15 17  1  0  0  0  0
 17 18  1  0  0  0  0
 17 19  1  0  0  0  0
M  END
$$$$

 OpenBabel12191814062D

 33 37  0  0  0  0  0  0  0  0999 V2000
    3.6371   -2.4976    0.0000 Cl  0  0  0  0  0  0  0  0  0  0  0  0
    3.0850   -3.1107    0.0000 C   0  0  0  0  0  0  0  0  0  0  0  0
    3.3400   -3.8953    0.0000 C   0  0  0  0  0  0  0  0  0  0  0  0
    2.7879   -4.5084    0.0000 C   0  0  0  0  0  0  0  0  0  0  0  0
    1.9810   -4.3369    0.0000 C   0  0  0  0  0  0  0  0  0  0  0  0
    1.7260   -3.5523    0.0000 C   0  0  0  0  0  0  0  0  0  0  0  0
    0.9191   -3.3808    0.0000 Cl  0  0  0  0  0  0  0  0  0  0  0  0
    2.2781   -2.9392    0.0000 C   0  0  0  0  0  0  0  0  0  0  0  0
    1.4289   -4.9500    0.0000 C   0  0  3  0  0  0  0  0  0  0  0  0
    0.8769   -4.3369    0.0000 C   0  0  0  0  0  0  0  0  0  0  0  0
    0.0699   -4.5084    0.0000 N   0  0  0  0  0  0  0  0  0  0  0  0
   -0.2656   -5.2621    0.0000 C   0  0  0  0  0  0  0  0  0  0  0  0
   -1.0861   -5.1759    0.0000 C   0  0  0  0  0  0  0  0  0  0  0  0
   -1.2576   -4.3689    0.0000 N   0  0  0  0  0  0  0  0  0  0  0  0
   -0.5432   -3.9564    0.0000 C   0  0  0  0  0  0  0  0  0  0  0  0
    2.0964   -5.4349    0.0000 O   0  0  0  0  0  0  0  0  0  0  0  0
    1.8414   -6.2195    0.0000 C   0  0  0  0  0  0  0  0  0  0  0  0
    1.0164   -6.2195    0.0000 C   0  0  3  0  0  0  0  0  0  0  0  0
    0.5315   -6.8870    0.0000 C   0  0  0  0  0  0  0  0  0  0  0  0
    0.8671   -7.6407    0.0000 O   0  0  0  0  0  0  0  0  0  0  0  0
    0.3822   -8.3081    0.0000 C   0  0  0  0  0  0  0  0  0  0  0  0
    0.7177   -9.0618    0.0000 C   0  0  0  0  0  0  0  0  0  0  0  0
    0.2328   -9.7292    0.0000 C   0  0  0  0  0  0  0  0  0  0  0  0
   -0.5877   -9.6430    0.0000 C   0  0  0  0  0  0  0  0  0  0  0  0
   -0.9232   -8.8893    0.0000 C   0  0  0  0  0  0  0  0  0  0  0  0
   -0.4383   -8.2219    0.0000 C   0  0  0  0  0  0  0  0  0  0  0  0
   -1.0726  -10.3104    0.0000 C   0  0  0  0  0  0  0  0  0  0  0  0
   -0.7371  -11.0641    0.0000 C   0  0  0  0  0  0  0  0  0  0  0  0
   -1.2220  -11.7315    0.0000 C   0  0  0  0  0  0  0  0  0  0  0  0
   -2.0425  -11.6453    0.0000 C   0  0  0  0  0  0  0  0  0  0  0  0
   -2.3780  -10.8916    0.0000 C   0  0  0  0  0  0  0  0  0  0  0  0
   -1.8931  -10.2242    0.0000 C   0  0  0  0  0  0  0  0  0  0  0  0
    0.7615   -5.4349    0.0000 O   0  0  0  0  0  0  0  0  0  0  0  0
  1  2  1  0  0  0  0
  2  3  2  0  0  0  0
  2  8  1  0  0  0  0
  3  4  1  0  0  0  0
  4  5  2  0  0  0  0
  5  6  1  0  0  0  0
  5  9  1  0  0  0  0
  6  7  1  0  0  0  0
  6  8  2  0  0  0  0
  9 10  1  0  0  0  0
  9 16  1  0  0  0  0
  9 33  1  0  0  0  0
 10 11  1  0  0  0  0
 11 12  1  0  0  0  0
 11 15  1  0  0  0  0
 12 13  2  0  0  0  0
 13 14  1  0  0  0  0
 14 15  2  0  0  0  0
 16 17  1  0  0  0  0
 17 18  1  0  0  0  0
 18 19  1  0  0  0  0
 18 33  1  0  0  0  0
 19 20  1  0  0  0  0
 20 21  1  0  0  0  0
 21 22  2  0  0  0  0
 21 26  1  0  0  0  0
 22 23  1  0  0  0  0
 23 24  2  0  0  0  0
 24 25  1  0  0  0  0
 24 27  1  0  0  0  0
 25 26  2  0  0  0  0
 27 28  2  0  0  0  0
 27 32  1  0  0  0  0
 28 29  1  0  0  0  0
 29 30  2  0  0  0  0
 30 31  1  0  0  0  0
 31 32  2  0  0  0  0
M  END
$$$$

 OpenBabel12191814062D

 32 36  0  0  0  0  0  0  0  0999 V2000
    3.6371   -0.0226    0.0000 Cl  0  0  0  0  0  0  0  0  0  0  0  0
    3.0850   -0.6357    0.0000 C   0  0  0  0  0  0  0  0  0  0  0  0
    3.3400   -1.4203    0.0000 C   0  0  0  0  0  0  0  0  0  0  0  0
    2.7879   -2.0334    0.0000 C   0  0  0  0  0  0  0  0  0  0  0  0
    1.9810   -1.8619    0.0000 C   0  0  0  0  0  0  0  0  0  0  0  0
    1.7260   -1.0773    0.0000 C   0  0  0  0  0  0  0  0  0  0  0  0
    0.9191   -0.9058    0.0000 Cl  0  0  0  0  0  0  0  0  0  0  0  0
    2.2781   -0.4642    0.0000 C   0  0  0  0  0  0  0  0  0  0  0  0
    1.4289   -2.4750    0.0000 C   0  0  3  0  0  0  0  0  0  0  0  0
    0.8769   -1.8619    0.0000 C   0  0  0  0  0  0  0  0  0  0  0  0
    0.0699   -2.0334    0.0000 N   0  0  0  0  0  0  0  0  0  0  0  0
   -0.2656   -2.7871    0.0000 C   0  0  0  0  0  0  0  0  0  0  0  0
   -1.0861   -2.7009    0.0000 C   0  0  0  0  0  0  0  0  0  0  0  0
   -1.2576   -1.8939    0.0000 N   0  0  0  0  0  0  0  0  0  0  0  0
   -0.5432   -1.4814    0.0000 C   0  0  0  0  0  0  0  0  0  0  0  0
    2.0964   -2.9599    0.0000 O   0  0  0  0  0  0  0  0  0  0  0  0
    1.8414   -3.7445    0.0000 C   0  0  0  0  0  0  0  0  0  0  0  0
    1.0164   -3.7445    0.0000 C   0  0  3  0  0  0  0  0  0  0  0  0
    0.5315   -4.4120    0.0000 C   0  0  0  0  0  0  0  0  0  0  0  0
    0.8671   -5.1657    0.0000 O   0  0  0  0  0  0  0  0  0  0  0  0
    0.3822   -5.8331    0.0000 C   0  0  0  0  0  0  0  0  0  0  0  0
    0.7177   -6.5868    0.0000 C   0  0  0  0  0  0  0  0  0  0  0  0
    0.2328   -7.2542    0.0000 C   0  0  0  0  0  0  0  0  0  0  0  0
   -0.5877   -7.1680    0.0000 C   0  0  0  0  0  0  0  0  0  0  0  0
   -0.9232   -6.4143    0.0000 C   0  0  0  0  0  0  0  0  0  0  0  0
   -0.4383   -5.7469    0.0000 C   0  0  0  0  0  0  0  0  0  0  0  0
   -1.0726   -7.8354    0.0000 N   0  0  0  0  0  0  0  0  0  0  0  0
   -0.8177   -8.6200    0.0000 C   0  0  0  0  0  0  0  0  0  0  0  0
   -1.4851   -9.1050    0.0000 C   0  0  0  0  0  0  0  0  0  0  0  0
   -2.1526   -8.6200    0.0000 N   0  0  0  0  0  0  0  0  0  0  0  0
   -1.8976   -7.8354    0.0000 C   0  0  0  0  0  0  0  0  0  0  0  0
    0.7615   -2.9599    0.0000 O   0  0  0  0  0  0  0  0  0  0  0  0
  1  2  1  0  0  0  0
  2  3  2  0  0  0  0
  2  8  1  0  0  0  0
  3  4  1  0  0  0  0
  4  5  2  0  0  0  0
  5  6  1  0  0  0  0
  5  9  1  0  0  0  0
  6  7  1  0  0  0  0
  6  8  2  0  0  0  0
  9 10  1  0  0  0  0
  9 16  1  0  0  0  0
  9 32  1  0  0  0  0
 10 11  1  0  0  0  0
 11 12  1  0  0  0  0
 11 15  1  0  0  0  0
 12 13  2  0  0  0  0
 13 14  1  0  0  0  0
 14 15  2  0  0  0  0
 16 17  1  0  0  0  0
 17 18  1  0  0  0  0
 18 19  1  0  0  0  0
 18 32  1  0  0  0  0
 19 20  1  0  0  0  0
 20 21  1  0  0  0  0
 21 22  2  0  0  0  0
 21 26  1  0  0  0  0
 22 23  1  0  0  0  0
 23 24  2  0  0  0  0
 24 25  1  0  0  0  0
 24 27  1  0  0  0  0
 25 26  2  0  0  0  0
 27 28  1  0  0  0  0
 27 31  1  0  0  0  0
 28 29  2  0  0  0  0
 29 30  1  0  0  0  0
 30 31  2  0  0  0  0
M  END
$$$$

 OpenBabel12191814062D

 25 27  0  0  0  0  0  0  0  0999 V2000
   -1.4289   -4.1250    0.0000 Cl  0  0  0  0  0  0  0  0  0  0  0  0
   -0.7145   -3.7125    0.0000 C   0  0  0  0  0  0  0  0  0  0  0  0
   -0.7145   -2.8875    0.0000 C   0  0  0  0  0  0  0  0  0  0  0  0
    0.0000   -2.4750    0.0000 C   0  0  0  0  0  0  0  0  0  0  0  0
    0.7145   -2.8875    0.0000 C   0  0  0  0  0  0  0  0  0  0  0  0
    1.4289   -2.4750    0.0000 C   0  0  3  0  0  0  0  0  0  0  0  0
    1.4289   -1.6500    0.0000 C   0  0  0  0  0  0  0  0  0  0  0  0
    2.1434   -1.2375    0.0000 N   0  0  0  0  0  0  0  0  0  0  0  0
    2.2296   -0.4170    0.0000 C   0  0  0  0  0  0  0  0  0  0  0  0
    3.0366   -0.2455    0.0000 C   0  0  0  0  0  0  0  0  0  0  0  0
    3.4491   -0.9600    0.0000 N   0  0  0  0  0  0  0  0  0  0  0  0
    2.8971   -1.5731    0.0000 C   0  0  0  0  0  0  0  0  0  0  0  0
    2.1434   -2.8875    0.0000 O   0  0  0  0  0  0  0  0  0  0  0  0
    2.8579   -2.4750    0.0000 C   0  0  0  0  0  0  0  0  0  0  0  0
    3.5724   -2.8875    0.0000 C   0  0  0  0  0  0  0  0  0  0  0  0
    4.2868   -2.4750    0.0000 C   0  0  0  0  0  0  0  0  0  0  0  0
    4.2868   -1.6500    0.0000 Cl  0  0  0  0  0  0  0  0  0  0  0  0
    5.0013   -2.8875    0.0000 C   0  0  0  0  0  0  0  0  0  0  0  0
    5.0013   -3.7125    0.0000 C   0  0  0  0  0  0  0  0  0  0  0  0
    4.2868   -4.1250    0.0000 C   0  0  0  0  0  0  0  0  0  0  0  0
    3.5724   -3.7125    0.0000 C   0  0  0  0  0  0  0  0  0  0  0  0
    2.8579   -4.1250    0.0000 Cl  0  0  0  0  0  0  0  0  0  0  0  0
    0.7145   -3.7125    0.0000 C   0  0  0  0  0  0  0  0  0  0  0  0
    1.4289   -4.1250    0.0000 Cl  0  0  0  0  0  0  0  0  0  0  0  0
    0.0000   -4.1250    0.0000 C   0  0  0  0  0  0  0  0  0  0  0  0
  1  2  1  0  0  0  0
  2  3  2  0  0  0  0
  2 25  1  0  0  0  0
  3  4  1  0  0  0  0
  4  5  2  0  0  0  0
  5  6  1  0  0  0  0
  5 23  1  0  0  0  0
  6  7  1  0  0  0  0
  6 13  1  0  0  0  0
  7  8  1  0  0  0  0
  8  9  1  0  0  0  0
  8 12  1  0  0  0  0
  9 10  2  0  0  0  0
 10 11  1  0  0  0  0
 11 12  2  0  0  0  0
 13 14  1  0  0  0  0
 14 15  1  0  0  0  0
 15 16  2  0  0  0  0
 15 21  1  0  0  0  0
 16 17  1  0  0  0  0
 16 18  1  0  0  0  0
 18 19  2  0  0  0  0
 19 20  1  0  0  0  0
 20 21  2  0  0  0  0
 21 22  1  0  0  0  0
 23 24  1  0  0  0  0
 23 25  2  0  0  0  0
M  END
$$$$

 OpenBabel12191814062D

 30 33  0  0  0  0  0  0  0  0999 V2000
    2.9646    0.7634    0.0000 Cl  0  0  0  0  0  0  0  0  0  0  0  0
    2.9646   -0.0616    0.0000 C   0  0  0  0  0  0  0  0  0  0  0  0
    3.6791   -0.4741    0.0000 C   0  0  0  0  0  0  0  0  0  0  0  0
    3.6791   -1.2991    0.0000 C   0  0  0  0  0  0  0  0  0  0  0  0
    2.9646   -1.7116    0.0000 C   0  0  0  0  0  0  0  0  0  0  0  0
    2.9646   -2.5366    0.0000 C   0  0  3  0  0  0  0  0  0  0  0  0
    3.6791   -2.9491    0.0000 C   0  0  0  0  0  0  0  0  0  0  0  0
    3.6791   -3.7741    0.0000 N   0  0  0  0  0  0  0  0  0  0  0  0
    4.3465   -4.2590    0.0000 C   0  0  0  0  0  0  0  0  0  0  0  0
    4.0916   -5.0437    0.0000 C   0  0  0  0  0  0  0  0  0  0  0  0
    3.2666   -5.0437    0.0000 N   0  0  0  0  0  0  0  0  0  0  0  0
    3.0116   -4.2590    0.0000 C   0  0  0  0  0  0  0  0  0  0  0  0
    2.2501   -2.9491    0.0000 O   0  0  0  0  0  0  0  0  0  0  0  0
    2.2501   -3.7741    0.0000 C   0  0  0  0  0  0  0  0  0  0  0  0
    1.5356   -4.1866    0.0000 C   0  0  0  0  0  0  0  0  0  0  0  0
    1.5356   -5.0116    0.0000 C   0  0  0  0  0  0  0  0  0  0  0  0
    0.8212   -5.4241    0.0000 C   0  0  0  0  0  0  0  0  0  0  0  0
    0.1067   -5.0116    0.0000 C   0  0  0  0  0  0  0  0  0  0  0  0
   -0.6078   -5.4241    0.0000 S   0  0  0  0  0  0  0  0  0  0  0  0
   -1.3222   -5.0116    0.0000 C   0  0  0  0  0  0  0  0  0  0  0  0
   -2.0367   -5.4241    0.0000 C   0  0  0  0  0  0  0  0  0  0  0  0
   -2.7512   -5.0116    0.0000 C   0  0  0  0  0  0  0  0  0  0  0  0
   -2.7512   -4.1866    0.0000 C   0  0  0  0  0  0  0  0  0  0  0  0
   -2.0367   -3.7741    0.0000 C   0  0  0  0  0  0  0  0  0  0  0  0
   -1.3222   -4.1866    0.0000 C   0  0  0  0  0  0  0  0  0  0  0  0
    0.1067   -4.1866    0.0000 C   0  0  0  0  0  0  0  0  0  0  0  0
    0.8212   -3.7741    0.0000 C   0  0  0  0  0  0  0  0  0  0  0  0
    2.2501   -1.2991    0.0000 C   0  0  0  0  0  0  0  0  0  0  0  0
    1.5356   -1.7116    0.0000 Cl  0  0  0  0  0  0  0  0  0  0  0  0
    2.2501   -0.4741    0.0000 C   0  0  0  0  0  0  0  0  0  0  0  0
  1  2  1  0  0  0  0
  2  3  2  0  0  0  0
  2 30  1  0  0  0  0
  3  4  1  0  0  0  0
  4  5  2  0  0  0  0
  5  6  1  0  0  0  0
  5 28  1  0  0  0  0
  6  7  1  0  0  0  0
  6 13  1  0  0  0  0
  7  8  1  0  0  0  0
  8  9  1  0  0  0  0
  8 12  1  0  0  0  0
  9 10  2  0  0  0  0
 10 11  1  0  0  0  0
 11 12  2  0  0  0  0
 13 14  1  0  0  0  0
 14 15  1  0  0  0  0
 15 16  2  0  0  0  0
 15 27  1  0  0  0  0
 16 17  1  0  0  0  0
 17 18  2  0  0  0  0
 18 19  1  0  0  0  0
 18 26  1  0  0  0  0
 19 20  1  0  0  0  0
 20 21  2  0  0  0  0
 20 25  1  0  0  0  0
 21 22  1  0  0  0  0
 22 23  2  0  0  0  0
 23 24  1  0  0  0  0
 24 25  2  0  0  0  0
 26 27  2  0  0  0  0
 28 29  1  0  0  0  0
 28 30  2  0  0  0  0
M  END
$$$$

 OpenBabel12191814062D

 29 32  0  0  0  0  0  0  0  0999 V2000
   -0.7145   -0.4125    0.0000 Cl  0  0  0  0  0  0  0  0  0  0  0  0
   -0.7145   -1.2375    0.0000 C   0  0  0  0  0  0  0  0  0  0  0  0
    0.0000   -1.6500    0.0000 C   0  0  0  0  0  0  0  0  0  0  0  0
    0.0000   -2.4750    0.0000 C   0  0  0  0  0  0  0  0  0  0  0  0
   -0.7145   -2.8875    0.0000 C   0  0  0  0  0  0  0  0  0  0  0  0
   -1.4289   -2.4750    0.0000 C   0  0  0  0  0  0  0  0  0  0  0  0
   -1.4289   -1.6500    0.0000 C   0  0  0  0  0  0  0  0  0  0  0  0
   -0.7145   -3.7125    0.0000 C   0  0  3  0  0  0  0  0  0  0  0  0
   -1.4289   -4.1250    0.0000 N   0  0  0  0  0  0  0  0  0  0  0  0
   -1.4289   -4.9500    0.0000 C   0  0  0  0  0  0  0  0  0  0  0  0
   -2.1434   -5.3625    0.0000 C   0  0  0  0  0  0  0  0  0  0  0  0
   -2.8579   -4.9500    0.0000 N   0  0  0  0  0  0  0  0  0  0  0  0
   -3.5724   -5.3625    0.0000 C   0  0  0  0  0  0  0  0  0  0  0  0
   -4.2868   -4.9500    0.0000 C   0  0  0  0  0  0  0  0  0  0  0  0
   -5.0013   -5.3625    0.0000 C   0  0  0  0  0  0  0  0  0  0  0  0
   -5.7158   -4.9500    0.0000 C   0  0  0  0  0  0  0  0  0  0  0  0
   -6.4302   -5.3625    0.0000 C   0  0  0  0  0  0  0  0  0  0  0  0
   -7.1447   -4.9500    0.0000 C   0  0  0  0  0  0  0  0  0  0  0  0
   -7.1447   -4.1250    0.0000 C   0  0  0  0  0  0  0  0  0  0  0  0
   -6.4302   -3.7125    0.0000 C   0  0  0  0  0  0  0  0  0  0  0  0
   -5.7158   -4.1250    0.0000 C   0  0  0  0  0  0  0  0  0  0  0  0
   -2.8579   -4.1250    0.0000 C   0  0  0  0  0  0  0  0  0  0  0  0
   -2.1434   -3.7125    0.0000 C   0  0  0  0  0  0  0  0  0  0  0  0
   -0.0000   -4.1250    0.0000 C   0  0  0  0  0  0  0  0  0  0  0  0
    0.7145   -3.7125    0.0000 C   0  0  0  0  0  0  0  0  0  0  0  0
    1.4289   -4.1250    0.0000 C   0  0  0  0  0  0  0  0  0  0  0  0
    1.4289   -4.9500    0.0000 C   0  0  0  0  0  0  0  0  0  0  0  0
    0.7145   -5.3625    0.0000 C   0  0  0  0  0  0  0  0  0  0  0  0
   -0.0000   -4.9500    0.0000 C   0  0  0  0  0  0  0  0  0  0  0  0
  1  2  1  0  0  0  0
  2  3  2  0  0  0  0
  2  7  1  0  0  0  0
  3  4  1  0  0  0  0
  4  5  2  0  0  0  0
  5  6  1  0  0  0  0
  5  8  1  0  0  0  0
  6  7  2  0  0  0  0
  8  9  1  0  0  0  0
  8 24  1  0  0  0  0
  9 10  1  0  0  0  0
  9 23  1  0  0  0  0
 10 11  1  0  0  0  0
 11 12  1  0  0  0  0
 12 13  1  0  0  0  0
 12 22  1  0  0  0  0
 13 14  1  0  0  0  0
 14 15  2  0  0  0  0
 15 16  1  0  0  0  0
 16 17  2  0  0  0  0
 16 21  1  0  0  0  0
 17 18  1  0  0  0  0
 18 19  2  0  0  0  0
 19 20  1  0  0  0  0
 20 21  2  0  0  0  0
 22 23  1  0  0  0  0
 24 25  2  0  0  0  0
 24 29  1  0  0  0  0
 25 26  1  0  0  0  0
 26 27  2  0  0  0  0
 27 28  1  0  0  0  0
 28 29  2  0  0  0  0
M  END
$$$$

 OpenBabel12191814062D

 23 25  0  0  0  0  0  0  0  0999 V2000
   -3.5724   -0.4125    0.0000 Cl  0  0  0  0  0  0  0  0  0  0  0  0
   -2.8579   -0.8250    0.0000 C   0  0  0  0  0  0  0  0  0  0  0  0
   -2.1434   -0.4125    0.0000 C   0  0  0  0  0  0  0  0  0  0  0  0
   -1.4289   -0.8250    0.0000 C   0  0  0  0  0  0  0  0  0  0  0  0
   -1.4289   -1.6500    0.0000 C   0  0  0  0  0  0  0  0  0  0  0  0
   -2.1434   -2.0625    0.0000 C   0  0  0  0  0  0  0  0  0  0  0  0
   -2.8579   -1.6500    0.0000 C   0  0  0  0  0  0  0  0  0  0  0  0
   -0.7145   -2.0625    0.0000 C   0  0  3  0  0  0  0  0  0  0  0  0
    0.0000   -1.6500    0.0000 O   0  0  0  0  0  0  0  0  0  0  0  0
    0.7145   -2.0625    0.0000 C   0  0  0  0  0  0  0  0  0  0  0  0
    1.4289   -1.6500    0.0000 C   0  0  0  0  0  0  0  0  0  0  0  0
    2.1434   -2.0625    0.0000 N   0  0  0  0  0  0  0  0  0  0  0  0
    2.8579   -1.6500    0.0000 C   0  0  0  0  0  0  0  0  0  0  0  0
    3.5724   -2.0625    0.0000 C   0  0  0  0  0  0  0  0  0  0  0  0
    3.5724   -2.8875    0.0000 C   0  0  0  0  0  0  0  0  0  0  0  0
    2.8579   -3.3000    0.0000 C   0  0  0  0  0  0  0  0  0  0  0  0
    2.1434   -2.8875    0.0000 C   0  0  0  0  0  0  0  0  0  0  0  0
   -0.7145   -2.8875    0.0000 C   0  0  0  0  0  0  0  0  0  0  0  0
    0.0000   -3.3000    0.0000 C   0  0  0  0  0  0  0  0  0  0  0  0
    0.0000   -4.1250    0.0000 C   0  0  0  0  0  0  0  0  0  0  0  0
   -0.7145   -4.5375    0.0000 C   0  0  0  0  0  0  0  0  0  0  0  0
   -1.4289   -4.1250    0.0000 C   0  0  0  0  0  0  0  0  0  0  0  0
   -1.4289   -3.3000    0.0000 C   0  0  0  0  0  0  0  0  0  0  0  0
  1  2  1  0  0  0  0
  2  3  2  0  0  0  0
  2  7  1  0  0  0  0
  3  4  1  0  0  0  0
  4  5  2  0  0  0  0
  5  6  1  0  0  0  0
  5  8  1  0  0  0  0
  6  7  2  0  0  0  0
  8  9  1  0  0  0  0
  8 18  1  0  0  0  0
  9 10  1  0  0  0  0
 10 11  1  0  0  0  0
 11 12  1  0  0  0  0
 12 13  1  0  0  0  0
 12 17  1  0  0  0  0
 13 14  1  0  0  0  0
 14 15  1  0  0  0  0
 15 16  1  0  0  0  0
 16 17  1  0  0  0  0
 18 19  2  0  0  0  0
 18 23  1  0  0  0  0
 19 20  1  0  0  0  0
 20 21  2  0  0  0  0
 21 22  1  0  0  0  0
 22 23  2  0  0  0  0
M  END
$$$$

 OpenBabel12191814062D

 23 25  0  0  0  0  0  0  0  0999 V2000
   -3.5724   -0.4125    0.0000 Cl  0  0  0  0  0  0  0  0  0  0  0  0
   -2.8579   -0.8250    0.0000 C   0  0  0  0  0  0  0  0  0  0  0  0
   -2.1434   -0.4125    0.0000 C   0  0  0  0  0  0  0  0  0  0  0  0
   -1.4289   -0.8250    0.0000 C   0  0  0  0  0  0  0  0  0  0  0  0
   -1.4289   -1.6500    0.0000 C   0  0  0  0  0  0  0  0  0  0  0  0
   -2.1434   -2.0625    0.0000 C   0  0  0  0  0  0  0  0  0  0  0  0
   -2.8579   -1.6500    0.0000 C   0  0  0  0  0  0  0  0  0  0  0  0
   -0.7145   -2.0625    0.0000 C   0  0  3  0  0  0  0  0  0  0  0  0
    0.0000   -1.6500    0.0000 O   0  0  0  0  0  0  0  0  0  0  0  0
    0.7145   -2.0625    0.0000 C   0  0  0  0  0  0  0  0  0  0  0  0
    1.4289   -1.6500    0.0000 C   0  0  0  0  0  0  0  0  0  0  0  0
    2.1434   -2.0625    0.0000 N   0  0  0  0  0  0  0  0  0  0  0  0
    2.8579   -1.6500    0.0000 C   0  0  0  0  0  0  0  0  0  0  0  0
    3.5724   -2.0625    0.0000 C   0  0  0  0  0  0  0  0  0  0  0  0
    3.5724   -2.8875    0.0000 O   0  0  0  0  0  0  0  0  0  0  0  0
    2.8579   -3.3000    0.0000 C   0  0  0  0  0  0  0  0  0  0  0  0
    2.1434   -2.8875    0.0000 C   0  0  0  0  0  0  0  0  0  0  0  0
   -0.7145   -2.8875    0.0000 C   0  0  0  0  0  0  0  0  0  0  0  0
    0.0000   -3.3000    0.0000 C   0  0  0  0  0  0  0  0  0  0  0  0
    0.0000   -4.1250    0.0000 C   0  0  0  0  0  0  0  0  0  0  0  0
   -0.7145   -4.5375    0.0000 C   0  0  0  0  0  0  0  0  0  0  0  0
   -1.4289   -4.1250    0.0000 C   0  0  0  0  0  0  0  0  0  0  0  0
   -1.4289   -3.3000    0.0000 C   0  0  0  0  0  0  0  0  0  0  0  0
  1  2  1  0  0  0  0
  2  3  2  0  0  0  0
  2  7  1  0  0  0  0
  3  4  1  0  0  0  0
  4  5  2  0  0  0  0
  5  6  1  0  0  0  0
  5  8  1  0  0  0  0
  6  7  2  0  0  0  0
  8  9  1  0  0  0  0
  8 18  1  0  0  0  0
  9 10  1  0  0  0  0
 10 11  1  0  0  0  0
 11 12  1  0  0  0  0
 12 13  1  0  0  0  0
 12 17  1  0  0  0  0
 13 14  1  0  0  0  0
 14 15  1  0  0  0  0
 15 16  1  0  0  0  0
 16 17  1  0  0  0  0
 18 19  2  0  0  0  0
 18 23  1  0  0  0  0
 19 20  1  0  0  0  0
 20 21  2  0  0  0  0
 21 22  1  0  0  0  0
 22 23  2  0  0  0  0
M  END
$$$$

 OpenBabel12191814062D

 26 29  0  0  0  0  0  0  0  0999 V2000
    4.2868   -4.1250    0.0000 Cl  0  0  0  0  0  0  0  0  0  0  0  0
    3.5724   -3.7125    0.0000 C   0  0  0  0  0  0  0  0  0  0  0  0
    2.8579   -4.1250    0.0000 C   0  0  0  0  0  0  0  0  0  0  0  0
    2.1434   -3.7125    0.0000 C   0  0  0  0  0  0  0  0  0  0  0  0
    2.1434   -2.8875    0.0000 C   0  0  0  0  0  0  0  0  0  0  0  0
    1.4289   -2.4750    0.0000 C   0  0  0  0  0  0  0  0  0  0  0  0
    1.4289   -1.6500    0.0000 C   0  0  0  0  0  0  0  0  0  0  0  0
    0.7145   -1.2375    0.0000 N   0  0  0  0  0  0  0  0  0  0  0  0
    0.7145   -0.4125    0.0000 N   0  0  0  0  0  0  0  0  0  0  0  0
    0.0000    0.0000    0.0000 C   0  0  3  0  0  0  0  0  0  0  0  0
   -0.6816   -0.4647    0.0000 C   0  0  0  0  0  0  0  0  0  0  0  0
   -1.4700   -0.2216    0.0000 C   0  0  0  0  0  0  0  0  0  0  0  0
   -1.7714    0.5464    0.0000 C   0  0  0  0  0  0  0  0  0  0  0  0
   -1.3589    1.2609    0.0000 N   0  0  0  0  0  0  0  0  0  0  0  0
   -0.5431    1.3838    0.0000 C   0  0  0  0  0  0  0  0  0  0  0  0
    0.0617    0.8227    0.0000 C   0  0  0  0  0  0  0  0  0  0  0  0
    1.4289    0.0000    0.0000 C   0  0  0  0  0  0  0  0  0  0  0  0
    1.4289    0.8250    0.0000 O   0  0  0  0  0  0  0  0  0  0  0  0
    2.1434   -0.4125    0.0000 C   0  0  0  0  0  0  0  0  0  0  0  0
    2.8579    0.0000    0.0000 C   0  0  0  0  0  0  0  0  0  0  0  0
    3.5724   -0.4125    0.0000 C   0  0  0  0  0  0  0  0  0  0  0  0
    3.5724   -1.2375    0.0000 C   0  0  0  0  0  0  0  0  0  0  0  0
    2.8579   -1.6500    0.0000 C   0  0  0  0  0  0  0  0  0  0  0  0
    2.1434   -1.2375    0.0000 C   0  0  0  0  0  0  0  0  0  0  0  0
    2.8579   -2.4750    0.0000 C   0  0  0  0  0  0  0  0  0  0  0  0
    3.5724   -2.8875    0.0000 C   0  0  0  0  0  0  0  0  0  0  0  0
  1  2  1  0  0  0  0
  2  3  2  0  0  0  0
  2 26  1  0  0  0  0
  3  4  1  0  0  0  0
  4  5  2  0  0  0  0
  5  6  1  0  0  0  0
  5 25  1  0  0  0  0
  6  7  1  0  0  0  0
  7  8  2  0  0  0  0
  7 24  1  0  0  0  0
  8  9  1  0  0  0  0
  9 10  1  0  0  0  0
  9 17  1  0  0  0  0
 10 11  1  0  0  0  0
 10 16  1  0  0  0  0
 11 12  1  0  0  0  0
 12 13  1  0  0  0  0
 13 14  1  0  0  0  0
 14 15  1  0  0  0  0
 15 16  1  0  0  0  0
 17 18  2  0  0  0  0
 17 19  1  0  0  0  0
 19 20  2  0  0  0  0
 19 24  1  0  0  0  0
 20 21  1  0  0  0  0
 21 22  2  0  0  0  0
 22 23  1  0  0  0  0
 23 24  2  0  0  0  0
 25 26  2  0  0  0  0
M  END
$$$$

 OpenBabel12191814062D

 26 29  0  0  0  0  0  0  0  0999 V2000
    4.2868   -4.1250    0.0000 Cl  0  0  0  0  0  0  0  0  0  0  0  0
    3.5724   -3.7125    0.0000 C   0  0  0  0  0  0  0  0  0  0  0  0
    2.8579   -4.1250    0.0000 C   0  0  0  0  0  0  0  0  0  0  0  0
    2.1434   -3.7125    0.0000 C   0  0  0  0  0  0  0  0  0  0  0  0
    2.1434   -2.8875    0.0000 C   0  0  0  0  0  0  0  0  0  0  0  0
    1.4289   -2.4750    0.0000 C   0  0  0  0  0  0  0  0  0  0  0  0
    1.4289   -1.6500    0.0000 C   0  0  0  0  0  0  0  0  0  0  0  0
    0.7145   -1.2375    0.0000 N   0  0  0  0  0  0  0  0  0  0  0  0
    0.7145   -0.4125    0.0000 N   0  0  0  0  0  0  0  0  0  0  0  0
    0.0000    0.0000    0.0000 C   0  0  3  0  0  0  0  0  0  0  0  0
   -0.6816   -0.4647    0.0000 C   0  0  0  0  0  0  0  0  0  0  0  0
   -1.4700   -0.2216    0.0000 C   0  0  0  0  0  0  0  0  0  0  0  0
   -1.7714    0.5464    0.0000 C   0  0  0  0  0  0  0  0  0  0  0  0
   -1.3589    1.2609    0.0000 N   0  0  0  0  0  0  0  0  0  0  0  0
   -0.5431    1.3838    0.0000 C   0  0  0  0  0  0  0  0  0  0  0  0
    0.0617    0.8227    0.0000 C   0  0  0  0  0  0  0  0  0  0  0  0
    1.4289    0.0000    0.0000 C   0  0  0  0  0  0  0  0  0  0  0  0
    1.4289    0.8250    0.0000 O   0  0  0  0  0  0  0  0  0  0  0  0
    2.1434   -0.4125    0.0000 C   0  0  0  0  0  0  0  0  0  0  0  0
    2.8579    0.0000    0.0000 C   0  0  0  0  0  0  0  0  0  0  0  0
    3.5724   -0.4125    0.0000 C   0  0  0  0  0  0  0  0  0  0  0  0
    3.5724   -1.2375    0.0000 C   0  0  0  0  0  0  0  0  0  0  0  0
    2.8579   -1.6500    0.0000 C   0  0  0  0  0  0  0  0  0  0  0  0
    2.1434   -1.2375    0.0000 C   0  0  0  0  0  0  0  0  0  0  0  0
    2.8579   -2.4750    0.0000 C   0  0  0  0  0  0  0  0  0  0  0  0
    3.5724   -2.8875    0.0000 C   0  0  0  0  0  0  0  0  0  0  0  0
  1  2  1  0  0  0  0
  2  3  2  0  0  0  0
  2 26  1  0  0  0  0
  3  4  1  0  0  0  0
  4  5  2  0  0  0  0
  5  6  1  0  0  0  0
  5 25  1  0  0  0  0
  6  7  1  0  0  0  0
  7  8  2  0  0  0  0
  7 24  1  0  0  0  0
  8  9  1  0  0  0  0
  9 10  1  0  0  0  0
  9 17  1  0  0  0  0
 10 11  1  0  0  0  0
 10 16  1  0  0  0  0
 11 12  1  0  0  0  0
 12 13  1  0  0  0  0
 13 14  1  0  0  0  0
 14 15  1  0  0  0  0
 15 16  1  0  0  0  0
 17 18  2  0  0  0  0
 17 19  1  0  0  0  0
 19 20  2  0  0  0  0
 19 24  1  0  0  0  0
 20 21  1  0  0  0  0
 21 22  2  0  0  0  0
 22 23  1  0  0  0  0
 23 24  2  0  0  0  0
 25 26  2  0  0  0  0
M  END
$$$$

 OpenBabel12191814062D

 30 34  0  0  0  0  0  0  0  0999 V2000
    5.6284   -8.4526    0.0000 Cl  0  0  0  0  0  0  0  0  0  0  0  0
    5.3734   -7.6680    0.0000 C   0  0  0  0  0  0  0  0  0  0  0  0
    4.5665   -7.4964    0.0000 C   0  0  0  0  0  0  0  0  0  0  0  0
    4.3115   -6.7118    0.0000 C   0  0  0  0  0  0  0  0  0  0  0  0
    4.8636   -6.0987    0.0000 C   0  0  0  0  0  0  0  0  0  0  0  0
    4.6086   -5.3141    0.0000 C   0  0  0  0  0  0  0  0  0  0  0  0
    3.8017   -5.1426    0.0000 C   0  0  0  0  0  0  0  0  0  0  0  0
    3.5467   -4.3580    0.0000 N   0  0  0  0  0  0  0  0  0  0  0  0
    2.7397   -4.1864    0.0000 C   0  0  0  0  0  0  0  0  0  0  0  0
    2.4848   -3.4018    0.0000 C   0  0  0  0  0  0  0  0  0  0  0  0
    3.0368   -2.7887    0.0000 N   0  0  0  0  0  0  0  0  0  0  0  0
    3.8438   -2.9602    0.0000 C   0  0  0  0  0  0  0  0  0  0  0  0
    4.0987   -3.7449    0.0000 C   0  0  0  0  0  0  0  0  0  0  0  0
    2.7819   -2.0041    0.0000 C   0  0  0  0  0  0  0  0  0  0  0  0
    1.9749   -1.8326    0.0000 N   0  0  0  0  0  0  0  0  0  0  0  0
    1.7200   -1.0479    0.0000 C   0  0  0  0  0  0  0  0  0  0  0  0
    2.2720   -0.4349    0.0000 N   0  0  0  0  0  0  0  0  0  0  0  0
    3.0790   -0.6064    0.0000 C   0  0  0  0  0  0  0  0  0  0  0  0
    3.7464   -0.1215    0.0000 C   0  0  0  0  0  0  0  0  0  0  0  0
    3.7464    0.7035    0.0000 C   0  0  0  0  0  0  0  0  0  0  0  0
    3.7464    1.5285    0.0000 N   0  0  0  0  0  0  0  0  0  0  0  0
    4.4139   -0.6064    0.0000 C   0  0  0  0  0  0  0  0  0  0  0  0
    5.2208   -0.4349    0.0000 C   0  0  0  0  0  0  0  0  0  0  0  0
    5.7729   -1.0479    0.0000 C   0  0  0  0  0  0  0  0  0  0  0  0
    5.5179   -1.8326    0.0000 C   0  0  0  0  0  0  0  0  0  0  0  0
    4.7110   -2.0041    0.0000 C   0  0  0  0  0  0  0  0  0  0  0  0
    4.1589   -1.3910    0.0000 N   0  0  0  0  0  0  0  0  0  0  0  0
    3.3339   -1.3910    0.0000 C   0  0  0  0  0  0  0  0  0  0  0  0
    5.6705   -6.2703    0.0000 C   0  0  0  0  0  0  0  0  0  0  0  0
    5.9255   -7.0549    0.0000 C   0  0  0  0  0  0  0  0  0  0  0  0
  1  2  1  0  0  0  0
  2  3  2  0  0  0  0
  2 30  1  0  0  0  0
  3  4  1  0  0  0  0
  4  5  2  0  0  0  0
  5  6  1  0  0  0  0
  5 29  1  0  0  0  0
  6  7  1  0  0  0  0
  7  8  1  0  0  0  0
  8  9  1  0  0  0  0
  8 13  1  0  0  0  0
  9 10  1  0  0  0  0
 10 11  1  0  0  0  0
 11 12  1  0  0  0  0
 11 14  1  0  0  0  0
 12 13  1  0  0  0  0
 14 15  2  0  0  0  0
 14 28  1  0  0  0  0
 15 16  1  0  0  0  0
 16 17  2  0  0  0  0
 17 18  1  0  0  0  0
 18 19  1  0  0  0  0
 18 28  2  0  0  0  0
 19 20  1  0  0  0  0
 19 22  2  0  0  0  0
 20 21  3  0  0  0  0
 22 23  1  0  0  0  0
 22 27  1  0  0  0  0
 23 24  1  0  0  0  0
 24 25  1  0  0  0  0
 25 26  1  0  0  0  0
 26 27  1  0  0  0  0
 27 28  1  0  0  0  0
 29 30  2  0  0  0  0
M  END
$$$$

 OpenBabel12191814062D

 23 26  0  0  0  0  0  0  0  0999 V2000
    3.0919   -4.6024    0.0000 Cl  0  0  0  0  0  0  0  0  0  0  0  0
    2.5399   -3.9893    0.0000 C   0  0  0  0  0  0  0  0  0  0  0  0
    1.7329   -4.1608    0.0000 C   0  0  0  0  0  0  0  0  0  0  0  0
    1.1809   -3.5477    0.0000 C   0  0  0  0  0  0  0  0  0  0  0  0
    1.4358   -2.7631    0.0000 C   0  0  0  0  0  0  0  0  0  0  0  0
    0.8838   -2.1500    0.0000 C   0  0  0  0  0  0  0  0  0  0  0  0
    1.1387   -1.3654    0.0000 N   0  0  0  0  0  0  0  0  0  0  0  0
    0.6538   -0.6979    0.0000 C   0  0  0  0  0  0  0  0  0  0  0  0
   -0.1712   -0.6979    0.0000 C   0  0  0  0  0  0  0  0  0  0  0  0
   -0.5837    0.0165    0.0000 N   0  0  0  0  0  0  0  0  0  0  0  0
   -1.4042    0.1028    0.0000 C   0  0  0  0  0  0  0  0  0  0  0  0
   -1.5757    0.9097    0.0000 C   0  0  0  0  0  0  0  0  0  0  0  0
   -0.8612    1.3222    0.0000 C   0  0  0  0  0  0  0  0  0  0  0  0
   -0.2481    0.7702    0.0000 C   0  0  0  0  0  0  0  0  0  0  0  0
    1.1387   -0.0305    0.0000 N   0  0  0  0  0  0  0  0  0  0  0  0
    1.9233   -0.2854    0.0000 C   0  0  0  0  0  0  0  0  0  0  0  0
    2.6378    0.1271    0.0000 C   0  0  0  0  0  0  0  0  0  0  0  0
    3.3523   -0.2854    0.0000 C   0  0  0  0  0  0  0  0  0  0  0  0
    3.3523   -1.1104    0.0000 C   0  0  0  0  0  0  0  0  0  0  0  0
    2.6378   -1.5229    0.0000 C   0  0  0  0  0  0  0  0  0  0  0  0
    1.9233   -1.1104    0.0000 C   0  0  0  0  0  0  0  0  0  0  0  0
    2.2428   -2.5916    0.0000 C   0  0  0  0  0  0  0  0  0  0  0  0
    2.7948   -3.2047    0.0000 C   0  0  0  0  0  0  0  0  0  0  0  0
  1  2  1  0  0  0  0
  2  3  2  0  0  0  0
  2 23  1  0  0  0  0
  3  4  1  0  0  0  0
  4  5  2  0  0  0  0
  5  6  1  0  0  0  0
  5 22  1  0  0  0  0
  6  7  1  0  0  0  0
  7  8  1  0  0  0  0
  7 21  1  0  0  0  0
  8  9  1  0  0  0  0
  8 15  2  0  0  0  0
  9 10  1  0  0  0  0
 10 11  1  0  0  0  0
 10 14  1  0  0  0  0
 11 12  1  0  0  0  0
 12 13  1  0  0  0  0
 13 14  1  0  0  0  0
 15 16  1  0  0  0  0
 16 17  2  0  0  0  0
 16 21  1  0  0  0  0
 17 18  1  0  0  0  0
 18 19  2  0  0  0  0
 19 20  1  0  0  0  0
 20 21  2  0  0  0  0
 22 23  2  0  0  0  0
M  END
$$$$

 OpenBabel12191814062D

 25 27  0  0  0  0  0  0  0  0999 V2000
    1.6710   -0.7910    0.0000 Cl  0  0  0  0  0  0  0  0  0  0  0  0
    1.6710   -1.6160    0.0000 C   0  0  0  0  0  0  0  0  0  0  0  0
    2.3854   -2.0285    0.0000 C   0  0  0  0  0  0  0  0  0  0  0  0
    2.3854   -2.8535    0.0000 C   0  0  0  0  0  0  0  0  0  0  0  0
    1.6710   -3.2660    0.0000 C   0  0  0  0  0  0  0  0  0  0  0  0
    1.6710   -4.0910    0.0000 C   0  0  0  0  0  0  0  0  0  0  0  0
    0.9565   -4.5035    0.0000 N   0  0  0  0  0  0  0  0  0  0  0  0
    1.0181   -5.3262    0.0000 C   0  0  0  0  0  0  0  0  0  0  0  0
    0.4134   -5.8873    0.0000 C   0  0  0  0  0  0  0  0  0  0  0  0
   -0.4024   -5.7644    0.0000 N   0  0  0  0  0  0  0  0  0  0  0  0
   -0.8671   -6.4460    0.0000 C   0  0  0  0  0  0  0  0  0  0  0  0
   -1.6898   -6.3844    0.0000 C   0  0  0  0  0  0  0  0  0  0  0  0
   -2.1546   -7.0660    0.0000 C   0  0  0  0  0  0  0  0  0  0  0  0
   -2.9773   -7.0043    0.0000 C   0  0  0  0  0  0  0  0  0  0  0  0
   -3.3352   -6.2610    0.0000 C   0  0  0  0  0  0  0  0  0  0  0  0
   -4.1579   -6.1994    0.0000 Cl  0  0  0  0  0  0  0  0  0  0  0  0
   -2.8705   -5.5794    0.0000 C   0  0  0  0  0  0  0  0  0  0  0  0
   -2.0478   -5.6411    0.0000 C   0  0  0  0  0  0  0  0  0  0  0  0
   -0.8149   -5.0499    0.0000 C   0  0  0  0  0  0  0  0  0  0  0  0
   -1.6376   -5.1115    0.0000 S   0  0  0  0  0  0  0  0  0  0  0  0
   -0.5135   -4.2819    0.0000 N   0  0  0  0  0  0  0  0  0  0  0  0
    0.2748   -4.0387    0.0000 C   0  0  0  0  0  0  0  0  0  0  0  0
    0.3978   -3.2230    0.0000 O   0  0  0  0  0  0  0  0  0  0  0  0
    0.9565   -2.8535    0.0000 C   0  0  0  0  0  0  0  0  0  0  0  0
    0.9565   -2.0285    0.0000 C   0  0  0  0  0  0  0  0  0  0  0  0
  1  2  1  0  0  0  0
  2  3  2  0  0  0  0
  2 25  1  0  0  0  0
  3  4  1  0  0  0  0
  4  5  2  0  0  0  0
  5  6  1  0  0  0  0
  5 24  1  0  0  0  0
  6  7  1  0  0  0  0
  7  8  1  0  0  0  0
  7 22  1  0  0  0  0
  8  9  1  0  0  0  0
  9 10  1  0  0  0  0
 10 11  1  0  0  0  0
 10 19  1  0  0  0  0
 11 12  1  0  0  0  0
 12 13  2  0  0  0  0
 12 18  1  0  0  0  0
 13 14  1  0  0  0  0
 14 15  2  0  0  0  0
 15 16  1  0  0  0  0
 15 17  1  0  0  0  0
 17 18  2  0  0  0  0
 19 20  2  0  0  0  0
 19 21  1  0  0  0  0
 21 22  1  0  0  0  0
 22 23  2  0  0  0  0
 24 25  2  0  0  0  0
M  END
$$$$

 OpenBabel12191814062D

 25 27  0  0  0  0  0  0  0  0999 V2000
    1.6710   -0.7910    0.0000 Cl  0  0  0  0  0  0  0  0  0  0  0  0
    1.6710   -1.6160    0.0000 C   0  0  0  0  0  0  0  0  0  0  0  0
    2.3854   -2.0285    0.0000 C   0  0  0  0  0  0  0  0  0  0  0  0
    2.3854   -2.8535    0.0000 C   0  0  0  0  0  0  0  0  0  0  0  0
    1.6710   -3.2660    0.0000 C   0  0  0  0  0  0  0  0  0  0  0  0
    1.6710   -4.0910    0.0000 C   0  0  0  0  0  0  0  0  0  0  0  0
    0.9565   -4.5035    0.0000 N   0  0  0  0  0  0  0  0  0  0  0  0
    1.0181   -5.3262    0.0000 C   0  0  0  0  0  0  0  0  0  0  0  0
    0.4134   -5.8873    0.0000 C   0  0  0  0  0  0  0  0  0  0  0  0
   -0.4024   -5.7644    0.0000 N   0  0  0  0  0  0  0  0  0  0  0  0
   -0.8671   -6.4460    0.0000 C   0  0  0  0  0  0  0  0  0  0  0  0
   -1.6898   -6.3844    0.0000 C   0  0  0  0  0  0  0  0  0  0  0  0
   -2.1546   -7.0660    0.0000 C   0  0  0  0  0  0  0  0  0  0  0  0
   -2.9773   -7.0043    0.0000 C   0  0  0  0  0  0  0  0  0  0  0  0
   -3.3352   -6.2610    0.0000 C   0  0  0  0  0  0  0  0  0  0  0  0
   -4.1579   -6.1994    0.0000 Cl  0  0  0  0  0  0  0  0  0  0  0  0
   -2.8705   -5.5794    0.0000 C   0  0  0  0  0  0  0  0  0  0  0  0
   -2.0478   -5.6411    0.0000 C   0  0  0  0  0  0  0  0  0  0  0  0
   -0.8149   -5.0499    0.0000 C   0  0  0  0  0  0  0  0  0  0  0  0
   -1.6376   -5.1115    0.0000 S   0  0  0  0  0  0  0  0  0  0  0  0
   -0.5135   -4.2819    0.0000 N   0  0  0  0  0  0  0  0  0  0  0  0
    0.2748   -4.0387    0.0000 C   0  0  0  0  0  0  0  0  0  0  0  0
    0.3978   -3.2230    0.0000 S   0  0  0  0  0  0  0  0  0  0  0  0
    0.9565   -2.8535    0.0000 C   0  0  0  0  0  0  0  0  0  0  0  0
    0.9565   -2.0285    0.0000 C   0  0  0  0  0  0  0  0  0  0  0  0
  1  2  1  0  0  0  0
  2  3  2  0  0  0  0
  2 25  1  0  0  0  0
  3  4  1  0  0  0  0
  4  5  2  0  0  0  0
  5  6  1  0  0  0  0
  5 24  1  0  0  0  0
  6  7  1  0  0  0  0
  7  8  1  0  0  0  0
  7 22  1  0  0  0  0
  8  9  1  0  0  0  0
  9 10  1  0  0  0  0
 10 11  1  0  0  0  0
 10 19  1  0  0  0  0
 11 12  1  0  0  0  0
 12 13  2  0  0  0  0
 12 18  1  0  0  0  0
 13 14  1  0  0  0  0
 14 15  2  0  0  0  0
 15 16  1  0  0  0  0
 15 17  1  0  0  0  0
 17 18  2  0  0  0  0
 19 20  2  0  0  0  0
 19 21  1  0  0  0  0
 21 22  1  0  0  0  0
 22 23  2  0  0  0  0
 24 25  2  0  0  0  0
M  END
$$$$

 OpenBabel12191814062D

 27 30  0  0  0  0  0  0  0  0999 V2000
    0.4944    8.5354    0.0000 Cl  0  0  0  0  0  0  0  0  0  0  0  0
    1.2089    8.1229    0.0000 C   0  0  0  0  0  0  0  0  0  0  0  0
    1.9233    8.5354    0.0000 C   0  0  0  0  0  0  0  0  0  0  0  0
    2.6378    8.1229    0.0000 C   0  0  0  0  0  0  0  0  0  0  0  0
    2.6378    7.2979    0.0000 C   0  0  0  0  0  0  0  0  0  0  0  0
    3.3523    6.8854    0.0000 O   0  0  0  0  0  0  0  0  0  0  0  0
    3.3523    6.0604    0.0000 C   0  0  0  0  0  0  0  0  0  0  0  0
    4.0668    5.6479    0.0000 C   0  0  0  0  0  0  0  0  0  0  0  0
    4.7812    6.0604    0.0000 O   0  0  0  0  0  0  0  0  0  0  0  0
    4.0668    4.8229    0.0000 N   0  0  0  0  0  0  0  0  0  0  0  0
    4.7812    4.4104    0.0000 C   0  0  0  0  0  0  0  0  0  0  0  0
    4.7812    3.5854    0.0000 C   0  0  0  0  0  0  0  0  0  0  0  0
    4.0668    3.1729    0.0000 N   0  0  0  0  0  0  0  0  0  0  0  0
    4.0668    2.3479    0.0000 C   0  0  0  0  0  0  0  0  0  0  0  0
    3.3523    1.9354    0.0000 C   0  0  0  0  0  0  0  0  0  0  0  0
    3.3523    1.1104    0.0000 C   0  0  0  0  0  0  0  0  0  0  0  0
    2.6378    0.6979    0.0000 C   0  0  0  0  0  0  0  0  0  0  0  0
    1.9233    1.1104    0.0000 C   0  0  0  0  0  0  0  0  0  0  0  0
    1.1387    0.8555    0.0000 O   0  0  0  0  0  0  0  0  0  0  0  0
    0.6538    1.5229    0.0000 C   0  0  0  0  0  0  0  0  0  0  0  0
    1.1387    2.1904    0.0000 O   0  0  0  0  0  0  0  0  0  0  0  0
    1.9233    1.9354    0.0000 C   0  0  0  0  0  0  0  0  0  0  0  0
    2.6378    2.3479    0.0000 C   0  0  0  0  0  0  0  0  0  0  0  0
    3.3523    3.5854    0.0000 C   0  0  0  0  0  0  0  0  0  0  0  0
    3.3523    4.4104    0.0000 C   0  0  0  0  0  0  0  0  0  0  0  0
    1.9233    6.8854    0.0000 C   0  0  0  0  0  0  0  0  0  0  0  0
    1.2089    7.2979    0.0000 C   0  0  0  0  0  0  0  0  0  0  0  0
  1  2  1  0  0  0  0
  2  3  2  0  0  0  0
  2 27  1  0  0  0  0
  3  4  1  0  0  0  0
  4  5  2  0  0  0  0
  5  6  1  0  0  0  0
  5 26  1  0  0  0  0
  6  7  1  0  0  0  0
  7  8  1  0  0  0  0
  8  9  2  0  0  0  0
  8 10  1  0  0  0  0
 10 11  1  0  0  0  0
 10 25  1  0  0  0  0
 11 12  1  0  0  0  0
 12 13  1  0  0  0  0
 13 14  1  0  0  0  0
 13 24  1  0  0  0  0
 14 15  1  0  0  0  0
 15 16  2  0  0  0  0
 15 23  1  0  0  0  0
 16 17  1  0  0  0  0
 17 18  2  0  0  0  0
 18 19  1  0  0  0  0
 18 22  1  0  0  0  0
 19 20  1  0  0  0  0
 20 21  1  0  0  0  0
 21 22  1  0  0  0  0
 22 23  2  0  0  0  0
 24 25  1  0  0  0  0
 26 27  2  0  0  0  0
M  END
$$$$

 OpenBabel12191814062D

 22 25  0  0  0  0  0  0  0  0999 V2000
   -0.3705   -1.6055    0.0000 Cl  0  0  0  0  0  0  0  0  0  0  0  0
    0.4178   -1.3623    0.0000 C   0  0  0  0  0  0  0  0  0  0  0  0
    0.6014   -0.5580    0.0000 C   0  0  0  0  0  0  0  0  0  0  0  0
    1.3897   -0.3148    0.0000 C   0  0  0  0  0  0  0  0  0  0  0  0
    1.9945   -0.8760    0.0000 C   0  0  0  0  0  0  0  0  0  0  0  0
    2.7378   -0.5180    0.0000 O   0  0  0  0  0  0  0  0  0  0  0  0
    3.4811   -0.8760    0.0000 C   0  0  0  0  0  0  0  0  0  0  0  0
    4.0859   -0.3148    0.0000 C   0  0  0  0  0  0  0  0  0  0  0  0
    4.8742   -0.5580    0.0000 C   0  0  0  0  0  0  0  0  0  0  0  0
    5.0578   -1.3623    0.0000 C   0  0  0  0  0  0  0  0  0  0  0  0
    4.4530   -1.9235    0.0000 C   0  0  0  0  0  0  0  0  0  0  0  0
    3.6647   -1.6803    0.0000 C   0  0  0  0  0  0  0  0  0  0  0  0
    3.1503   -2.3253    0.0000 N   0  0  0  0  0  0  0  0  0  0  0  0
    2.3253   -2.3253    0.0000 C   0  0  0  0  0  0  0  0  0  0  0  0
    1.9673   -3.0686    0.0000 N   0  0  0  0  0  0  0  0  0  0  0  0
    2.4321   -3.7502    0.0000 C   0  0  0  0  0  0  0  0  0  0  0  0
    2.0741   -4.4935    0.0000 C   0  0  0  0  0  0  0  0  0  0  0  0
    1.2514   -4.5552    0.0000 N   0  0  0  0  0  0  0  0  0  0  0  0
    0.7867   -3.8736    0.0000 C   0  0  0  0  0  0  0  0  0  0  0  0
    1.1447   -3.1303    0.0000 C   0  0  0  0  0  0  0  0  0  0  0  0
    1.8109   -1.6803    0.0000 C   0  0  0  0  0  0  0  0  0  0  0  0
    1.0226   -1.9235    0.0000 C   0  0  0  0  0  0  0  0  0  0  0  0
  1  2  1  0  0  0  0
  2  3  2  0  0  0  0
  2 22  1  0  0  0  0
  3  4  1  0  0  0  0
  4  5  2  0  0  0  0
  5  6  1  0  0  0  0
  5 21  1  0  0  0  0
  6  7  1  0  0  0  0
  7  8  2  0  0  0  0
  7 12  1  0  0  0  0
  8  9  1  0  0  0  0
  9 10  2  0  0  0  0
 10 11  1  0  0  0  0
 11 12  2  0  0  0  0
 12 13  1  0  0  0  0
 13 14  2  0  0  0  0
 14 15  1  0  0  0  0
 14 21  1  0  0  0  0
 15 16  1  0  0  0  0
 15 20  1  0  0  0  0
 16 17  1  0  0  0  0
 17 18  1  0  0  0  0
 18 19  1  0  0  0  0
 19 20  1  0  0  0  0
 21 22  2  0  0  0  0
M  END
$$$$

 OpenBabel12191814062D

 28 32  0  0  0  0  0  0  0  0999 V2000
    0.7145   -2.8875    0.0000 Cl  0  0  0  0  0  0  0  0  0  0  0  0
    1.4289   -2.4750    0.0000 C   0  0  0  0  0  0  0  0  0  0  0  0
    1.4289   -1.6500    0.0000 C   0  0  0  0  0  0  0  0  0  0  0  0
    2.1434   -1.2375    0.0000 C   0  0  0  0  0  0  0  0  0  0  0  0
    2.8579   -1.6500    0.0000 C   0  0  0  0  0  0  0  0  0  0  0  0
    3.5724   -1.2375    0.0000 S   0  0  0  0  0  0  0  0  0  0  0  0
    4.2868   -1.6500    0.0000 C   0  0  0  0  0  0  0  0  0  0  0  0
    5.0013   -1.2375    0.0000 C   0  0  0  0  0  0  0  0  0  0  0  0
    5.7158   -1.6500    0.0000 C   0  0  0  0  0  0  0  0  0  0  0  0
    5.7158   -2.4750    0.0000 C   0  0  0  0  0  0  0  0  0  0  0  0
    5.0013   -2.8875    0.0000 C   0  0  0  0  0  0  0  0  0  0  0  0
    4.2868   -2.4750    0.0000 C   0  0  0  0  0  0  0  0  0  0  0  0
    3.5724   -2.8875    0.0000 N   0  0  0  0  0  0  0  0  0  0  0  0
    3.5724   -3.7125    0.0000 C   0  0  0  0  0  0  0  0  0  0  0  0
    4.2868   -4.1250    0.0000 O   0  0  0  0  0  0  0  0  0  0  0  0
    2.8579   -4.1250    0.0000 C   0  0  0  0  0  0  0  0  0  0  0  0
    2.8579   -4.9500    0.0000 C   0  0  0  0  0  0  0  0  0  0  0  0
    2.1434   -5.3625    0.0000 N   0  0  0  0  0  0  0  0  0  0  0  0
    2.1434   -6.1875    0.0000 C   0  0  0  0  0  0  0  0  0  0  0  0
    1.4289   -6.6000    0.0000 C   0  0  0  0  0  0  0  0  0  0  0  0
    0.7145   -6.1875    0.0000 N   0  0  3  0  0  0  0  0  0  0  0  0
   -0.0702   -6.4424    0.0000 C   0  0  0  0  0  0  0  0  0  0  0  0
   -0.5551   -5.7750    0.0000 C   0  0  0  0  0  0  0  0  0  0  0  0
   -0.0702   -5.1076    0.0000 C   0  0  0  0  0  0  0  0  0  0  0  0
    0.7145   -5.3625    0.0000 C   0  0  3  0  0  0  0  0  0  0  0  0
    1.4289   -4.9500    0.0000 C   0  0  0  0  0  0  0  0  0  0  0  0
    2.8579   -2.4750    0.0000 C   0  0  0  0  0  0  0  0  0  0  0  0
    2.1434   -2.8875    0.0000 C   0  0  0  0  0  0  0  0  0  0  0  0
  1  2  1  0  0  0  0
  2  3  2  0  0  0  0
  2 28  1  0  0  0  0
  3  4  1  0  0  0  0
  4  5  2  0  0  0  0
  5  6  1  0  0  0  0
  5 27  1  0  0  0  0
  6  7  1  0  0  0  0
  7  8  2  0  0  0  0
  7 12  1  0  0  0  0
  8  9  1  0  0  0  0
  9 10  2  0  0  0  0
 10 11  1  0  0  0  0
 11 12  2  0  0  0  0
 12 13  1  0  0  0  0
 13 14  1  0  0  0  0
 13 27  1  0  0  0  0
 14 15  2  0  0  0  0
 14 16  1  0  0  0  0
 16 17  1  0  0  0  0
 17 18  1  0  0  0  0
 18 19  1  0  0  0  0
 18 26  1  0  0  0  0
 19 20  1  0  0  0  0
 20 21  1  0  0  0  0
 21 22  1  0  0  0  0
 21 25  1  0  0  0  0
 22 23  1  0  0  0  0
 23 24  1  0  0  0  0
 24 25  1  0  0  0  0
 25 26  1  0  0  0  0
 27 28  2  0  0  0  0
M  END
$$$$

 OpenBabel12191814062D

 26 29  0  0  0  0  0  0  0  0999 V2000
   -2.6462   -6.4137    0.0000 Cl  0  0  0  0  0  0  0  0  0  0  0  0
   -3.0587   -5.6992    0.0000 C   0  0  0  0  0  0  0  0  0  0  0  0
   -3.8837   -5.6992    0.0000 C   0  0  0  0  0  0  0  0  0  0  0  0
   -4.2962   -4.9848    0.0000 C   0  0  0  0  0  0  0  0  0  0  0  0
   -3.8837   -4.2703    0.0000 C   0  0  0  0  0  0  0  0  0  0  0  0
   -3.0587   -4.2703    0.0000 C   0  0  0  0  0  0  0  0  0  0  0  0
   -2.6462   -4.9848    0.0000 C   0  0  0  0  0  0  0  0  0  0  0  0
   -2.6462   -3.5558    0.0000 N   0  0  0  0  0  0  0  0  0  0  0  0
   -3.0587   -2.8414    0.0000 C   0  0  0  0  0  0  0  0  0  0  0  0
   -2.6462   -2.1269    0.0000 C   0  0  0  0  0  0  0  0  0  0  0  0
   -1.8212   -2.1269    0.0000 N   0  0  0  0  0  0  0  0  0  0  0  0
   -1.4087   -1.4124    0.0000 C   0  0  0  0  0  0  0  0  0  0  0  0
   -0.5837   -1.4124    0.0000 C   0  0  0  0  0  0  0  0  0  0  0  0
   -0.1712   -0.6979    0.0000 C   0  0  0  0  0  0  0  0  0  0  0  0
    0.6538   -0.6979    0.0000 N   0  0  0  0  0  0  0  0  0  0  0  0
    1.1387   -0.0305    0.0000 N   0  0  0  0  0  0  0  0  0  0  0  0
    1.9233   -0.2854    0.0000 C   0  0  0  0  0  0  0  0  0  0  0  0
    2.6378    0.1271    0.0000 C   0  0  0  0  0  0  0  0  0  0  0  0
    3.3523   -0.2854    0.0000 C   0  0  0  0  0  0  0  0  0  0  0  0
    3.3523   -1.1104    0.0000 C   0  0  0  0  0  0  0  0  0  0  0  0
    2.6378   -1.5229    0.0000 C   0  0  0  0  0  0  0  0  0  0  0  0
    1.9233   -1.1104    0.0000 N   0  0  0  0  0  0  0  0  0  0  0  0
    1.1387   -1.3654    0.0000 C   0  0  0  0  0  0  0  0  0  0  0  0
    0.8838   -2.1500    0.0000 O   0  0  0  0  0  0  0  0  0  0  0  0
   -1.4087   -2.8414    0.0000 C   0  0  0  0  0  0  0  0  0  0  0  0
   -1.8212   -3.5558    0.0000 C   0  0  0  0  0  0  0  0  0  0  0  0
  1  2  1  0  0  0  0
  2  3  2  0  0  0  0
  2  7  1  0  0  0  0
  3  4  1  0  0  0  0
  4  5  2  0  0  0  0
  5  6  1  0  0  0  0
  6  7  2  0  0  0  0
  6  8  1  0  0  0  0
  8  9  1  0  0  0  0
  8 26  1  0  0  0  0
  9 10  1  0  0  0  0
 10 11  1  0  0  0  0
 11 12  1  0  0  0  0
 11 25  1  0  0  0  0
 12 13  1  0  0  0  0
 13 14  1  0  0  0  0
 14 15  1  0  0  0  0
 15 16  1  0  0  0  0
 15 23  1  0  0  0  0
 16 17  2  0  0  0  0
 17 18  1  0  0  0  0
 17 22  1  0  0  0  0
 18 19  2  0  0  0  0
 19 20  1  0  0  0  0
 20 21  2  0  0  0  0
 21 22  1  0  0  0  0
 22 23  1  0  0  0  0
 23 24  2  0  0  0  0
 25 26  1  0  0  0  0
M  END
$$$$

 OpenBabel12191814062D

 30 34  0  0  0  0  0  0  0  0999 V2000
    6.7324   -7.2264    0.0000 Cl  0  0  0  0  0  0  0  0  0  0  0  0
    5.9255   -7.0549    0.0000 C   0  0  0  0  0  0  0  0  0  0  0  0
    5.3734   -7.6680    0.0000 C   0  0  0  0  0  0  0  0  0  0  0  0
    4.5665   -7.4964    0.0000 C   0  0  0  0  0  0  0  0  0  0  0  0
    4.3115   -6.7118    0.0000 C   0  0  0  0  0  0  0  0  0  0  0  0
    4.8636   -6.0987    0.0000 C   0  0  0  0  0  0  0  0  0  0  0  0
    4.6086   -5.3141    0.0000 C   0  0  0  0  0  0  0  0  0  0  0  0
    3.8017   -5.1426    0.0000 C   0  0  0  0  0  0  0  0  0  0  0  0
    3.5467   -4.3580    0.0000 N   0  0  0  0  0  0  0  0  0  0  0  0
    2.7397   -4.1864    0.0000 C   0  0  0  0  0  0  0  0  0  0  0  0
    2.4848   -3.4018    0.0000 C   0  0  0  0  0  0  0  0  0  0  0  0
    3.0368   -2.7887    0.0000 N   0  0  0  0  0  0  0  0  0  0  0  0
    3.8438   -2.9602    0.0000 C   0  0  0  0  0  0  0  0  0  0  0  0
    4.0987   -3.7449    0.0000 C   0  0  0  0  0  0  0  0  0  0  0  0
    2.7819   -2.0041    0.0000 C   0  0  0  0  0  0  0  0  0  0  0  0
    1.9749   -1.8326    0.0000 N   0  0  0  0  0  0  0  0  0  0  0  0
    1.7200   -1.0479    0.0000 C   0  0  0  0  0  0  0  0  0  0  0  0
    2.2720   -0.4349    0.0000 N   0  0  0  0  0  0  0  0  0  0  0  0
    3.0790   -0.6064    0.0000 C   0  0  0  0  0  0  0  0  0  0  0  0
    3.7464   -0.1215    0.0000 C   0  0  0  0  0  0  0  0  0  0  0  0
    3.7464    0.7035    0.0000 C   0  0  0  0  0  0  0  0  0  0  0  0
    3.7464    1.5285    0.0000 N   0  0  0  0  0  0  0  0  0  0  0  0
    4.4139   -0.6064    0.0000 C   0  0  0  0  0  0  0  0  0  0  0  0
    5.2208   -0.4349    0.0000 C   0  0  0  0  0  0  0  0  0  0  0  0
    5.7729   -1.0479    0.0000 C   0  0  0  0  0  0  0  0  0  0  0  0
    5.5179   -1.8326    0.0000 C   0  0  0  0  0  0  0  0  0  0  0  0
    4.7110   -2.0041    0.0000 C   0  0  0  0  0  0  0  0  0  0  0  0
    4.1589   -1.3910    0.0000 N   0  0  0  0  0  0  0  0  0  0  0  0
    3.3339   -1.3910    0.0000 C   0  0  0  0  0  0  0  0  0  0  0  0
    5.6705   -6.2703    0.0000 C   0  0  0  0  0  0  0  0  0  0  0  0
  1  2  1  0  0  0  0
  2  3  2  0  0  0  0
  2 30  1  0  0  0  0
  3  4  1  0  0  0  0
  4  5  2  0  0  0  0
  5  6  1  0  0  0  0
  6  7  1  0  0  0  0
  6 30  2  0  0  0  0
  7  8  1  0  0  0  0
  8  9  1  0  0  0  0
  9 10  1  0  0  0  0
  9 14  1  0  0  0  0
 10 11  1  0  0  0  0
 11 12  1  0  0  0  0
 12 13  1  0  0  0  0
 12 15  1  0  0  0  0
 13 14  1  0  0  0  0
 15 16  2  0  0  0  0
 15 29  1  0  0  0  0
 16 17  1  0  0  0  0
 17 18  2  0  0  0  0
 18 19  1  0  0  0  0
 19 20  1  0  0  0  0
 19 29  2  0  0  0  0
 20 21  1  0  0  0  0
 20 23  2  0  0  0  0
 21 22  3  0  0  0  0
 23 24  1  0  0  0  0
 23 28  1  0  0  0  0
 24 25  1  0  0  0  0
 25 26  1  0  0  0  0
 26 27  1  0  0  0  0
 27 28  1  0  0  0  0
 28 29  1  0  0  0  0
M  END
$$$$

 OpenBabel12191814062D

 25 27  0  0  0  0  0  0  0  0999 V2000
    1.6710   -0.7910    0.0000 Cl  0  0  0  0  0  0  0  0  0  0  0  0
    1.6710   -1.6160    0.0000 C   0  0  0  0  0  0  0  0  0  0  0  0
    2.3854   -2.0285    0.0000 C   0  0  0  0  0  0  0  0  0  0  0  0
    2.3854   -2.8535    0.0000 C   0  0  0  0  0  0  0  0  0  0  0  0
    1.6710   -3.2660    0.0000 C   0  0  0  0  0  0  0  0  0  0  0  0
    0.9565   -2.8535    0.0000 C   0  0  0  0  0  0  0  0  0  0  0  0
    0.2420   -3.2660    0.0000 C   0  0  0  0  0  0  0  0  0  0  0  0
   -0.4724   -2.8535    0.0000 N   0  0  0  0  0  0  0  0  0  0  0  0
   -1.1541   -3.3182    0.0000 C   0  0  0  0  0  0  0  0  0  0  0  0
   -1.9424   -3.0750    0.0000 C   0  0  0  0  0  0  0  0  0  0  0  0
   -2.2438   -2.3071    0.0000 N   0  0  0  0  0  0  0  0  0  0  0  0
   -3.0665   -2.2454    0.0000 C   0  0  0  0  0  0  0  0  0  0  0  0
   -3.4245   -1.5021    0.0000 C   0  0  0  0  0  0  0  0  0  0  0  0
   -4.2472   -1.4405    0.0000 C   0  0  0  0  0  0  0  0  0  0  0  0
   -4.6051   -0.6972    0.0000 C   0  0  0  0  0  0  0  0  0  0  0  0
   -4.1404   -0.0155    0.0000 C   0  0  0  0  0  0  0  0  0  0  0  0
   -3.3177   -0.0772    0.0000 C   0  0  0  0  0  0  0  0  0  0  0  0
   -2.8530    0.6045    0.0000 Cl  0  0  0  0  0  0  0  0  0  0  0  0
   -2.9598   -0.8205    0.0000 C   0  0  0  0  0  0  0  0  0  0  0  0
   -1.8313   -1.5926    0.0000 C   0  0  0  0  0  0  0  0  0  0  0  0
   -2.2961   -0.9110    0.0000 S   0  0  0  0  0  0  0  0  0  0  0  0
   -1.0156   -1.4696    0.0000 N   0  0  0  0  0  0  0  0  0  0  0  0
   -0.4108   -2.0308    0.0000 C   0  0  0  0  0  0  0  0  0  0  0  0
    0.3572   -1.7294    0.0000 O   0  0  0  0  0  0  0  0  0  0  0  0
    0.9565   -2.0285    0.0000 C   0  0  0  0  0  0  0  0  0  0  0  0
  1  2  1  0  0  0  0
  2  3  2  0  0  0  0
  2 25  1  0  0  0  0
  3  4  1  0  0  0  0
  4  5  2  0  0  0  0
  5  6  1  0  0  0  0
  6  7  1  0  0  0  0
  6 25  2  0  0  0  0
  7  8  1  0  0  0  0
  8  9  1  0  0  0  0
  8 23  1  0  0  0  0
  9 10  1  0  0  0  0
 10 11  1  0  0  0  0
 11 12  1  0  0  0  0
 11 20  1  0  0  0  0
 12 13  1  0  0  0  0
 13 14  2  0  0  0  0
 13 19  1  0  0  0  0
 14 15  1  0  0  0  0
 15 16  2  0  0  0  0
 16 17  1  0  0  0  0
 17 18  1  0  0  0  0
 17 19  2  0  0  0  0
 20 21  2  0  0  0  0
 20 22  1  0  0  0  0
 22 23  1  0  0  0  0
 23 24  2  0  0  0  0
M  END
$$$$

 OpenBabel12191814062D

 25 27  0  0  0  0  0  0  0  0999 V2000
    1.6710   -0.7910    0.0000 Cl  0  0  0  0  0  0  0  0  0  0  0  0
    1.6710   -1.6160    0.0000 C   0  0  0  0  0  0  0  0  0  0  0  0
    2.3854   -2.0285    0.0000 C   0  0  0  0  0  0  0  0  0  0  0  0
    2.3854   -2.8535    0.0000 C   0  0  0  0  0  0  0  0  0  0  0  0
    1.6710   -3.2660    0.0000 C   0  0  0  0  0  0  0  0  0  0  0  0
    0.9565   -2.8535    0.0000 C   0  0  0  0  0  0  0  0  0  0  0  0
    0.2420   -3.2660    0.0000 C   0  0  0  0  0  0  0  0  0  0  0  0
   -0.4724   -2.8535    0.0000 N   0  0  0  0  0  0  0  0  0  0  0  0
   -1.1541   -3.3182    0.0000 C   0  0  0  0  0  0  0  0  0  0  0  0
   -1.9424   -3.0750    0.0000 C   0  0  0  0  0  0  0  0  0  0  0  0
   -2.2438   -2.3071    0.0000 N   0  0  0  0  0  0  0  0  0  0  0  0
   -3.0665   -2.2454    0.0000 C   0  0  0  0  0  0  0  0  0  0  0  0
   -3.4245   -1.5021    0.0000 C   0  0  0  0  0  0  0  0  0  0  0  0
   -4.2472   -1.4405    0.0000 C   0  0  0  0  0  0  0  0  0  0  0  0
   -4.6051   -0.6972    0.0000 C   0  0  0  0  0  0  0  0  0  0  0  0
   -4.1404   -0.0155    0.0000 C   0  0  0  0  0  0  0  0  0  0  0  0
   -3.3177   -0.0772    0.0000 C   0  0  0  0  0  0  0  0  0  0  0  0
   -2.8530    0.6045    0.0000 Cl  0  0  0  0  0  0  0  0  0  0  0  0
   -2.9598   -0.8205    0.0000 C   0  0  0  0  0  0  0  0  0  0  0  0
   -1.8313   -1.5926    0.0000 C   0  0  0  0  0  0  0  0  0  0  0  0
   -2.2961   -0.9110    0.0000 S   0  0  0  0  0  0  0  0  0  0  0  0
   -1.0156   -1.4696    0.0000 N   0  0  0  0  0  0  0  0  0  0  0  0
   -0.4108   -2.0308    0.0000 C   0  0  0  0  0  0  0  0  0  0  0  0
    0.3572   -1.7294    0.0000 S   0  0  0  0  0  0  0  0  0  0  0  0
    0.9565   -2.0285    0.0000 C   0  0  0  0  0  0  0  0  0  0  0  0
  1  2  1  0  0  0  0
  2  3  2  0  0  0  0
  2 25  1  0  0  0  0
  3  4  1  0  0  0  0
  4  5  2  0  0  0  0
  5  6  1  0  0  0  0
  6  7  1  0  0  0  0
  6 25  2  0  0  0  0
  7  8  1  0  0  0  0
  8  9  1  0  0  0  0
  8 23  1  0  0  0  0
  9 10  1  0  0  0  0
 10 11  1  0  0  0  0
 11 12  1  0  0  0  0
 11 20  1  0  0  0  0
 12 13  1  0  0  0  0
 13 14  2  0  0  0  0
 13 19  1  0  0  0  0
 14 15  1  0  0  0  0
 15 16  2  0  0  0  0
 16 17  1  0  0  0  0
 17 18  1  0  0  0  0
 17 19  2  0  0  0  0
 20 21  2  0  0  0  0
 20 22  1  0  0  0  0
 22 23  1  0  0  0  0
 23 24  2  0  0  0  0
M  END
$$$$

 OpenBabel12191814062D

 25 28  0  0  0  0  0  0  0  0999 V2000
    0.7198    1.3553    0.0000 Cl  0  0  0  0  0  0  0  0  0  0  0  0
    1.5268    1.5268    0.0000 C   0  0  0  0  0  0  0  0  0  0  0  0
    1.5268    2.3518    0.0000 C   0  0  0  0  0  0  0  0  0  0  0  0
    2.2413    2.7643    0.0000 C   0  0  0  0  0  0  0  0  0  0  0  0
    2.9557    2.3518    0.0000 C   0  0  0  0  0  0  0  0  0  0  0  0
    2.9557    1.5268    0.0000 C   0  0  0  0  0  0  0  0  0  0  0  0
    2.2413    1.1143    0.0000 C   0  0  0  0  0  0  0  0  0  0  0  0
    2.2413    0.2893    0.0000 C   0  0  0  0  0  0  0  0  0  0  0  0
    1.4163    0.2893    0.0000 C   0  0  0  0  0  0  0  0  0  0  0  0
    1.0038   -0.4252    0.0000 C   0  0  0  0  0  0  0  0  0  0  0  0
    0.1788   -0.4252    0.0000 C   0  0  0  0  0  0  0  0  0  0  0  0
   -0.2337    0.2893    0.0000 C   0  0  0  0  0  0  0  0  0  0  0  0
    0.1788    1.0038    0.0000 C   0  0  0  0  0  0  0  0  0  0  0  0
    1.0038    1.0038    0.0000 C   0  0  0  0  0  0  0  0  0  0  0  0
    3.0663    0.2893    0.0000 C   0  0  0  0  0  0  0  0  0  0  0  0
    3.4788    1.0038    0.0000 C   0  0  0  0  0  0  0  0  0  0  0  0
    4.3038    1.0038    0.0000 C   0  0  0  0  0  0  0  0  0  0  0  0
    4.7163    0.2893    0.0000 C   0  0  0  0  0  0  0  0  0  0  0  0
    4.3038   -0.4252    0.0000 C   0  0  0  0  0  0  0  0  0  0  0  0
    3.4788   -0.4252    0.0000 C   0  0  0  0  0  0  0  0  0  0  0  0
    2.2413   -0.5357    0.0000 N   0  0  0  0  0  0  0  0  0  0  0  0
    2.9087   -1.0206    0.0000 C   0  0  0  0  0  0  0  0  0  0  0  0
    2.6538   -1.8053    0.0000 C   0  0  0  0  0  0  0  0  0  0  0  0
    1.8288   -1.8053    0.0000 N   0  0  0  0  0  0  0  0  0  0  0  0
    1.5738   -1.0206    0.0000 C   0  0  0  0  0  0  0  0  0  0  0  0
  1  2  1  0  0  0  0
  2  3  2  0  0  0  0
  2  7  1  0  0  0  0
  3  4  1  0  0  0  0
  4  5  2  0  0  0  0
  5  6  1  0  0  0  0
  6  7  2  0  0  0  0
  7  8  1  0  0  0  0
  8  9  1  0  0  0  0
  8 15  1  0  0  0  0
  8 21  1  0  0  0  0
  9 10  2  0  0  0  0
  9 14  1  0  0  0  0
 10 11  1  0  0  0  0
 11 12  2  0  0  0  0
 12 13  1  0  0  0  0
 13 14  2  0  0  0  0
 15 16  2  0  0  0  0
 15 20  1  0  0  0  0
 16 17  1  0  0  0  0
 17 18  2  0  0  0  0
 18 19  1  0  0  0  0
 19 20  2  0  0  0  0
 21 22  1  0  0  0  0
 21 25  1  0  0  0  0
 22 23  2  0  0  0  0
 23 24  1  0  0  0  0
 24 25  2  0  0  0  0
M  END
$$$$

 OpenBabel12191814062D

 22 25  0  0  0  0  0  0  0  0999 V2000
    0.7145   -2.8875    0.0000 Cl  0  0  0  0  0  0  0  0  0  0  0  0
    0.0000   -2.4750    0.0000 C   0  0  0  0  0  0  0  0  0  0  0  0
   -0.7145   -2.8875    0.0000 C   0  0  0  0  0  0  0  0  0  0  0  0
   -1.4289   -2.4750    0.0000 C   0  0  0  0  0  0  0  0  0  0  0  0
   -1.4289   -1.6500    0.0000 C   0  0  0  0  0  0  0  0  0  0  0  0
   -0.7145   -1.2375    0.0000 C   0  0  0  0  0  0  0  0  0  0  0  0
    0.0000   -1.6500    0.0000 C   0  0  0  0  0  0  0  0  0  0  0  0
    0.7145   -1.2375    0.0000 C   0  0  0  0  0  0  0  0  0  0  0  0
    0.7145   -0.4125    0.0000 N   0  0  0  0  0  0  0  0  0  0  0  0
    1.4289    0.0000    0.0000 C   0  0  0  0  0  0  0  0  0  0  0  0
    1.4289    0.8250    0.0000 N   0  0  0  0  0  0  0  0  0  0  0  0
    0.7615    1.3099    0.0000 C   0  0  0  0  0  0  0  0  0  0  0  0
    1.0164    2.0945    0.0000 C   0  0  0  0  0  0  0  0  0  0  0  0
    1.8414    2.0945    0.0000 C   0  0  0  0  0  0  0  0  0  0  0  0
    2.0964    1.3099    0.0000 C   0  0  0  0  0  0  0  0  0  0  0  0
    2.1434   -0.4125    0.0000 C   0  0  0  0  0  0  0  0  0  0  0  0
    2.8579    0.0000    0.0000 C   0  0  0  0  0  0  0  0  0  0  0  0
    3.5724   -0.4125    0.0000 C   0  0  0  0  0  0  0  0  0  0  0  0
    3.5724   -1.2375    0.0000 C   0  0  0  0  0  0  0  0  0  0  0  0
    2.8579   -1.6500    0.0000 C   0  0  0  0  0  0  0  0  0  0  0  0
    2.1434   -1.2375    0.0000 C   0  0  0  0  0  0  0  0  0  0  0  0
    1.4289   -1.6500    0.0000 N   0  0  0  0  0  0  0  0  0  0  0  0
  1  2  1  0  0  0  0
  2  3  2  0  0  0  0
  2  7  1  0  0  0  0
  3  4  1  0  0  0  0
  4  5  2  0  0  0  0
  5  6  1  0  0  0  0
  6  7  2  0  0  0  0
  7  8  1  0  0  0  0
  8  9  2  0  0  0  0
  8 22  1  0  0  0  0
  9 10  1  0  0  0  0
 10 11  1  0  0  0  0
 10 16  2  0  0  0  0
 11 12  1  0  0  0  0
 11 15  1  0  0  0  0
 12 13  1  0  0  0  0
 13 14  1  0  0  0  0
 14 15  1  0  0  0  0
 16 17  1  0  0  0  0
 16 21  1  0  0  0  0
 17 18  2  0  0  0  0
 18 19  1  0  0  0  0
 19 20  2  0  0  0  0
 20 21  1  0  0  0  0
 21 22  2  0  0  0  0
M  END
$$$$

 OpenBabel12191814062D

 30 34  0  0  0  0  0  0  0  0999 V2000
    6.2226   -5.6572    0.0000 Cl  0  0  0  0  0  0  0  0  0  0  0  0
    5.6705   -6.2703    0.0000 C   0  0  0  0  0  0  0  0  0  0  0  0
    5.9255   -7.0549    0.0000 C   0  0  0  0  0  0  0  0  0  0  0  0
    5.3734   -7.6680    0.0000 C   0  0  0  0  0  0  0  0  0  0  0  0
    4.5665   -7.4964    0.0000 C   0  0  0  0  0  0  0  0  0  0  0  0
    4.3115   -6.7118    0.0000 C   0  0  0  0  0  0  0  0  0  0  0  0
    4.8636   -6.0987    0.0000 C   0  0  0  0  0  0  0  0  0  0  0  0
    4.6086   -5.3141    0.0000 C   0  0  0  0  0  0  0  0  0  0  0  0
    3.8017   -5.1426    0.0000 C   0  0  0  0  0  0  0  0  0  0  0  0
    3.5467   -4.3580    0.0000 N   0  0  0  0  0  0  0  0  0  0  0  0
    2.7397   -4.1864    0.0000 C   0  0  0  0  0  0  0  0  0  0  0  0
    2.4848   -3.4018    0.0000 C   0  0  0  0  0  0  0  0  0  0  0  0
    3.0368   -2.7887    0.0000 N   0  0  0  0  0  0  0  0  0  0  0  0
    3.8438   -2.9602    0.0000 C   0  0  0  0  0  0  0  0  0  0  0  0
    4.0987   -3.7449    0.0000 C   0  0  0  0  0  0  0  0  0  0  0  0
    2.7819   -2.0041    0.0000 C   0  0  0  0  0  0  0  0  0  0  0  0
    1.9749   -1.8326    0.0000 N   0  0  0  0  0  0  0  0  0  0  0  0
    1.7200   -1.0479    0.0000 C   0  0  0  0  0  0  0  0  0  0  0  0
    2.2720   -0.4349    0.0000 N   0  0  0  0  0  0  0  0  0  0  0  0
    3.0790   -0.6064    0.0000 C   0  0  0  0  0  0  0  0  0  0  0  0
    3.7464   -0.1215    0.0000 C   0  0  0  0  0  0  0  0  0  0  0  0
    3.7464    0.7035    0.0000 C   0  0  0  0  0  0  0  0  0  0  0  0
    3.7464    1.5285    0.0000 N   0  0  0  0  0  0  0  0  0  0  0  0
    4.4139   -0.6064    0.0000 C   0  0  0  0  0  0  0  0  0  0  0  0
    5.2208   -0.4349    0.0000 C   0  0  0  0  0  0  0  0  0  0  0  0
    5.7729   -1.0479    0.0000 C   0  0  0  0  0  0  0  0  0  0  0  0
    5.5179   -1.8326    0.0000 C   0  0  0  0  0  0  0  0  0  0  0  0
    4.7110   -2.0041    0.0000 C   0  0  0  0  0  0  0  0  0  0  0  0
    4.1589   -1.3910    0.0000 N   0  0  0  0  0  0  0  0  0  0  0  0
    3.3339   -1.3910    0.0000 C   0  0  0  0  0  0  0  0  0  0  0  0
  1  2  1  0  0  0  0
  2  3  2  0  0  0  0
  2  7  1  0  0  0  0
  3  4  1  0  0  0  0
  4  5  2  0  0  0  0
  5  6  1  0  0  0  0
  6  7  2  0  0  0  0
  7  8  1  0  0  0  0
  8  9  1  0  0  0  0
  9 10  1  0  0  0  0
 10 11  1  0  0  0  0
 10 15  1  0  0  0  0
 11 12  1  0  0  0  0
 12 13  1  0  0  0  0
 13 14  1  0  0  0  0
 13 16  1  0  0  0  0
 14 15  1  0  0  0  0
 16 17  2  0  0  0  0
 16 30  1  0  0  0  0
 17 18  1  0  0  0  0
 18 19  2  0  0  0  0
 19 20  1  0  0  0  0
 20 21  1  0  0  0  0
 20 30  2  0  0  0  0
 21 22  1  0  0  0  0
 21 24  2  0  0  0  0
 22 23  3  0  0  0  0
 24 25  1  0  0  0  0
 24 29  1  0  0  0  0
 25 26  1  0  0  0  0
 26 27  1  0  0  0  0
 27 28  1  0  0  0  0
 28 29  1  0  0  0  0
 29 30  1  0  0  0  0
M  END
$$$$

 OpenBabel12191814062D

 26 28  0  0  0  0  0  0  0  0999 V2000
    0.0000   -7.4250    0.0000 Cl  0  0  0  0  0  0  0  0  0  0  0  0
    0.0000   -6.6000    0.0000 C   0  0  0  0  0  0  0  0  0  0  0  0
   -0.7145   -6.1875    0.0000 C   0  0  0  0  0  0  0  0  0  0  0  0
   -0.7145   -5.3625    0.0000 C   0  0  0  0  0  0  0  0  0  0  0  0
    0.0000   -4.9500    0.0000 C   0  0  0  0  0  0  0  0  0  0  0  0
    0.7145   -5.3625    0.0000 C   0  0  0  0  0  0  0  0  0  0  0  0
    0.7145   -6.1875    0.0000 C   0  0  0  0  0  0  0  0  0  0  0  0
    1.4289   -6.6000    0.0000 C   0  0  0  0  0  0  0  0  0  0  0  0
    2.1434   -6.1875    0.0000 C   0  0  0  0  0  0  0  0  0  0  0  0
    2.8579   -6.6000    0.0000 N   0  0  0  0  0  0  0  0  0  0  0  0
    3.5724   -6.1875    0.0000 C   0  0  0  0  0  0  0  0  0  0  0  0
    4.2868   -6.6000    0.0000 C   0  0  3  0  0  0  0  0  0  0  0  0
    5.0013   -6.1875    0.0000 C   0  0  0  0  0  0  0  0  0  0  0  0
    5.7158   -6.6000    0.0000 C   0  0  0  0  0  0  0  0  0  0  0  0
    5.7158   -7.4250    0.0000 C   0  0  3  0  0  0  0  0  0  0  0  0
    6.4302   -7.8375    0.0000 C   0  0  0  0  0  0  0  0  0  0  0  0
    7.1447   -7.4250    0.0000 N   0  0  0  0  0  0  0  0  0  0  0  0
    7.8592   -7.8375    0.0000 C   0  0  0  0  0  0  0  0  0  0  0  0
    8.5737   -7.4250    0.0000 C   0  0  0  0  0  0  0  0  0  0  0  0
    9.2881   -7.8375    0.0000 C   0  0  0  0  0  0  0  0  0  0  0  0
    9.2881   -8.6625    0.0000 C   0  0  0  0  0  0  0  0  0  0  0  0
    8.5737   -9.0750    0.0000 C   0  0  0  0  0  0  0  0  0  0  0  0
    7.8592   -8.6625    0.0000 C   0  0  0  0  0  0  0  0  0  0  0  0
    7.1447   -9.0750    0.0000 Cl  0  0  0  0  0  0  0  0  0  0  0  0
    5.0013   -7.8375    0.0000 C   0  0  0  0  0  0  0  0  0  0  0  0
    4.2868   -7.4250    0.0000 C   0  0  0  0  0  0  0  0  0  0  0  0
  1  2  1  0  0  0  0
  2  3  2  0  0  0  0
  2  7  1  0  0  0  0
  3  4  1  0  0  0  0
  4  5  2  0  0  0  0
  5  6  1  0  0  0  0
  6  7  2  0  0  0  0
  7  8  1  0  0  0  0
  8  9  1  0  0  0  0
  9 10  1  0  0  0  0
 10 11  1  0  0  0  0
 11 12  1  0  0  0  0
 12 13  1  0  0  0  0
 12 26  1  0  0  0  0
 13 14  1  0  0  0  0
 14 15  1  0  0  0  0
 15 16  1  0  0  0  0
 15 25  1  0  0  0  0
 16 17  1  0  0  0  0
 17 18  1  0  0  0  0
 18 19  2  0  0  0  0
 18 23  1  0  0  0  0
 19 20  1  0  0  0  0
 20 21  2  0  0  0  0
 21 22  1  0  0  0  0
 22 23  2  0  0  0  0
 23 24  1  0  0  0  0
 25 26  1  0  0  0  0
M  END
$$$$

 OpenBabel12191814062D

 34 38  0  0  0  0  0  0  0  0999 V2000
    1.6603    6.5195    0.0000 Cl  0  0  0  0  0  0  0  0  0  0  0  0
    2.3747    6.1070    0.0000 C   0  0  0  0  0  0  0  0  0  0  0  0
    3.0892    6.5195    0.0000 N   0  0  0  0  0  0  0  0  0  0  0  0
    3.8037    6.1070    0.0000 C   0  0  0  0  0  0  0  0  0  0  0  0
    4.5181    6.5195    0.0000 N   0  0  0  0  0  0  0  0  0  0  0  0
    4.5181    7.3445    0.0000 C   0  0  0  0  0  0  0  0  0  0  0  0
    5.2326    7.7570    0.0000 C   0  0  0  0  0  0  0  0  0  0  0  0
    5.2326    8.5820    0.0000 C   0  0  0  0  0  0  0  0  0  0  0  0
    3.8037    5.2820    0.0000 N   0  0  0  0  0  0  0  0  0  0  0  0
    3.0892    4.8695    0.0000 C   0  0  0  0  0  0  0  0  0  0  0  0
    2.3747    5.2820    0.0000 N   0  0  0  0  0  0  0  0  0  0  0  0
    3.0892    4.0445    0.0000 N   0  0  0  0  0  0  0  0  0  0  0  0
    3.8037    3.6320    0.0000 C   0  0  0  0  0  0  0  0  0  0  0  0
    3.8037    2.8070    0.0000 C   0  0  0  0  0  0  0  0  0  0  0  0
    3.0892    2.3945    0.0000 C   0  0  0  0  0  0  0  0  0  0  0  0
    2.3747    2.8070    0.0000 C   0  0  0  0  0  0  0  0  0  0  0  0
    2.3747    3.6320    0.0000 C   0  0  0  0  0  0  0  0  0  0  0  0
    3.0892    1.5695    0.0000 N   0  0  0  0  0  0  0  0  0  0  0  0
    3.8037    1.1570    0.0000 C   0  0  0  0  0  0  0  0  0  0  0  0
    3.8037    0.3320    0.0000 C   0  0  0  0  0  0  0  0  0  0  0  0
    4.5470   -0.0260    0.0000 C   0  0  0  0  0  0  0  0  0  0  0  0
    5.1517    0.5352    0.0000 C   0  0  0  0  0  0  0  0  0  0  0  0
    5.9401    0.2920    0.0000 C   0  0  0  0  0  0  0  0  0  0  0  0
    6.1237   -0.5123    0.0000 C   0  0  0  0  0  0  0  0  0  0  0  0
    5.5189   -1.0735    0.0000 C   0  0  0  0  0  0  0  0  0  0  0  0
    4.7305   -0.8303    0.0000 C   0  0  0  0  0  0  0  0  0  0  0  0
    4.2162   -1.4753    0.0000 C   0  0  0  0  0  0  0  0  0  0  0  0
    3.3912   -1.4753    0.0000 C   0  0  0  0  0  0  0  0  0  0  0  0
    2.8768   -0.8303    0.0000 C   0  0  0  0  0  0  0  0  0  0  0  0
    2.0884   -1.0735    0.0000 C   0  0  0  0  0  0  0  0  0  0  0  0
    1.4837   -0.5123    0.0000 C   0  0  0  0  0  0  0  0  0  0  0  0
    1.6673    0.2920    0.0000 C   0  0  0  0  0  0  0  0  0  0  0  0
    2.4556    0.5352    0.0000 C   0  0  0  0  0  0  0  0  0  0  0  0
    3.0604   -0.0260    0.0000 C   0  0  0  0  0  0  0  0  0  0  0  0
  1  2  1  0  0  0  0
  2  3  2  0  0  0  0
  2 11  1  0  0  0  0
  3  4  1  0  0  0  0
  4  5  1  0  0  0  0
  4  9  2  0  0  0  0
  5  6  1  0  0  0  0
  6  7  1  0  0  0  0
  7  8  2  0  0  0  0
  9 10  1  0  0  0  0
 10 11  2  0  0  0  0
 10 12  1  0  0  0  0
 12 13  1  0  0  0  0
 12 17  1  0  0  0  0
 13 14  1  0  0  0  0
 14 15  1  0  0  0  0
 15 16  1  0  0  0  0
 15 18  1  0  0  0  0
 16 17  1  0  0  0  0
 18 19  1  0  0  0  0
 19 20  1  0  0  0  0
 20 21  1  0  0  0  0
 20 34  1  0  0  0  0
 21 22  2  0  0  0  0
 21 26  1  0  0  0  0
 22 23  1  0  0  0  0
 23 24  2  0  0  0  0
 24 25  1  0  0  0  0
 25 26  2  0  0  0  0
 26 27  1  0  0  0  0
 27 28  1  0  0  0  0
 28 29  1  0  0  0  0
 29 30  2  0  0  0  0
 29 34  1  0  0  0  0
 30 31  1  0  0  0  0
 31 32  2  0  0  0  0
 32 33  1  0  0  0  0
 33 34  2  0  0  0  0
M  END
$$$$

 OpenBabel12191814062D

 31 35  0  0  0  0  0  0  0  0999 V2000
    0.0000    0.0000    0.0000 Cl  0  0  0  0  0  0  0  0  0  0  0  0
    0.7145   -0.4125    0.0000 C   0  0  0  0  0  0  0  0  0  0  0  0
    1.4289    0.0000    0.0000 N   0  0  0  0  0  0  0  0  0  0  0  0
    2.1434   -0.4125    0.0000 C   0  0  0  0  0  0  0  0  0  0  0  0
    2.8579    0.0000    0.0000 C   0  0  3  0  0  0  0  0  0  0  0  0
    3.5724   -0.4125    0.0000 N   0  0  0  0  0  0  0  0  0  0  0  0
    3.5724   -1.2375    0.0000 C   0  0  3  0  0  0  0  0  0  0  0  0
    2.8579   -1.6500    0.0000 O   0  0  0  0  0  0  0  0  0  0  0  0
    2.1434   -1.2375    0.0000 C   0  0  0  0  0  0  0  0  0  0  0  0
    1.4289   -1.6500    0.0000 N   0  0  0  0  0  0  0  0  0  0  0  0
    0.7145   -1.2375    0.0000 C   0  0  0  0  0  0  0  0  0  0  0  0
    0.0000   -1.6500    0.0000 N   0  0  0  0  0  0  0  0  0  0  0  0
   -0.7145   -1.2375    0.0000 C   0  0  0  0  0  0  0  0  0  0  0  0
   -1.4289   -1.6500    0.0000 C   0  0  0  0  0  0  0  0  0  0  0  0
   -1.4289   -2.4750    0.0000 C   0  0  0  0  0  0  0  0  0  0  0  0
   -2.1434   -2.8875    0.0000 C   0  0  0  0  0  0  0  0  0  0  0  0
   -2.8579   -2.4750    0.0000 C   0  0  0  0  0  0  0  0  0  0  0  0
   -2.8579   -1.6500    0.0000 C   0  0  0  0  0  0  0  0  0  0  0  0
   -2.1434   -1.2375    0.0000 C   0  0  0  0  0  0  0  0  0  0  0  0
    4.2868   -1.6500    0.0000 N   0  0  0  0  0  0  0  0  0  0  0  0
    5.0013   -1.2375    0.0000 C   0  0  0  0  0  0  0  0  0  0  0  0
    5.7158   -1.6500    0.0000 C   0  0  0  0  0  0  0  0  0  0  0  0
    5.7158   -2.4750    0.0000 N   0  0  0  0  0  0  0  0  0  0  0  0
    5.0013   -2.8875    0.0000 C   0  0  0  0  0  0  0  0  0  0  0  0
    4.2868   -2.4750    0.0000 C   0  0  0  0  0  0  0  0  0  0  0  0
    2.8579    0.8250    0.0000 N   0  0  0  0  0  0  0  0  0  0  0  0
    2.1434    1.2375    0.0000 C   0  0  0  0  0  0  0  0  0  0  0  0
    2.1434    2.0625    0.0000 C   0  0  0  0  0  0  0  0  0  0  0  0
    2.8579    2.4750    0.0000 S   0  0  0  0  0  0  0  0  0  0  0  0
    3.5724    2.0625    0.0000 C   0  0  0  0  0  0  0  0  0  0  0  0
    3.5724    1.2375    0.0000 C   0  0  0  0  0  0  0  0  0  0  0  0
  1  2  1  0  0  0  0
  2  3  2  0  0  0  0
  2 11  1  0  0  0  0
  3  4  1  0  0  0  0
  4  5  1  0  0  0  0
  4  9  2  0  0  0  0
  5  6  1  0  0  0  0
  5 26  1  0  0  0  0
  6  7  1  0  0  0  0
  7  8  1  0  0  0  0
  7 20  1  0  0  0  0
  8  9  1  0  0  0  0
  9 10  1  0  0  0  0
 10 11  2  0  0  0  0
 11 12  1  0  0  0  0
 12 13  1  0  0  0  0
 13 14  1  0  0  0  0
 14 15  2  0  0  0  0
 14 19  1  0  0  0  0
 15 16  1  0  0  0  0
 16 17  2  0  0  0  0
 17 18  1  0  0  0  0
 18 19  2  0  0  0  0
 20 21  1  0  0  0  0
 20 25  1  0  0  0  0
 21 22  1  0  0  0  0
 22 23  1  0  0  0  0
 23 24  1  0  0  0  0
 24 25  1  0  0  0  0
 26 27  1  0  0  0  0
 26 31  1  0  0  0  0
 27 28  1  0  0  0  0
 28 29  1  0  0  0  0
 29 30  1  0  0  0  0
 30 31  1  0  0  0  0
M  END
$$$$

 OpenBabel12191814062D

 20 22  0  0  0  0  0  0  0  0999 V2000
    2.1434    1.2375    0.0000 Cl  0  0  0  0  0  0  0  0  0  0  0  0
    2.8579    0.8250    0.0000 C   0  0  0  0  0  0  0  0  0  0  0  0
    3.5724    1.2375    0.0000 C   0  0  0  0  0  0  0  0  0  0  0  0
    4.2868    0.8250    0.0000 C   0  0  0  0  0  0  0  0  0  0  0  0
    5.0013    1.2375    0.0000 C   0  0  0  0  0  0  0  0  0  0  0  0
    5.7158    0.8250    0.0000 N   0  0  0  0  0  0  0  0  0  0  0  0
    6.4302    1.2375    0.0000 C   0  0  0  0  0  0  0  0  0  0  0  0
    6.4302    2.0625    0.0000 C   0  0  0  0  0  0  0  0  0  0  0  0
    7.1447    2.4750    0.0000 C   0  0  0  0  0  0  0  0  0  0  0  0
    7.8592    2.0625    0.0000 C   0  0  0  0  0  0  0  0  0  0  0  0
    7.8592    1.2375    0.0000 C   0  0  0  0  0  0  0  0  0  0  0  0
    7.1447    0.8250    0.0000 C   0  0  0  0  0  0  0  0  0  0  0  0
    7.1447    0.0000    0.0000 C   0  0  0  0  0  0  0  0  0  0  0  0
    7.8592   -0.4125    0.0000 O   0  0  0  0  0  0  0  0  0  0  0  0
    6.4302   -0.4125    0.0000 C   0  0  0  0  0  0  0  0  0  0  0  0
    6.4302   -1.2375    0.0000 C   0  0  0  0  0  0  0  0  0  0  0  0
    5.7158   -1.6500    0.0000 C   0  0  0  0  0  0  0  0  0  0  0  0
    5.0013   -1.2375    0.0000 C   0  0  0  0  0  0  0  0  0  0  0  0
    5.0013   -0.4125    0.0000 C   0  0  0  0  0  0  0  0  0  0  0  0
    5.7158    0.0000    0.0000 C   0  0  0  0  0  0  0  0  0  0  0  0
  1  2  1  0  0  0  0
  2  3  1  0  0  0  0
  3  4  1  0  0  0  0
  4  5  1  0  0  0  0
  5  6  1  0  0  0  0
  6  7  1  0  0  0  0
  6 20  1  0  0  0  0
  7  8  2  0  0  0  0
  7 12  1  0  0  0  0
  8  9  1  0  0  0  0
  9 10  2  0  0  0  0
 10 11  1  0  0  0  0
 11 12  2  0  0  0  0
 12 13  1  0  0  0  0
 13 14  2  0  0  0  0
 13 15  1  0  0  0  0
 15 16  2  0  0  0  0
 15 20  1  0  0  0  0
 16 17  1  0  0  0  0
 17 18  2  0  0  0  0
 18 19  1  0  0  0  0
 19 20  2  0  0  0  0
M  END
$$$$

 OpenBabel12191814062D

 19 21  0  0  0  0  0  0  0  0999 V2000
    0.7145    3.7125    0.0000 Cl  0  0  0  0  0  0  0  0  0  0  0  0
    1.4289    3.3000    0.0000 C   0  0  0  0  0  0  0  0  0  0  0  0
    1.4289    2.4750    0.0000 C   0  0  0  0  0  0  0  0  0  0  0  0
    2.1434    2.0625    0.0000 C   0  0  0  0  0  0  0  0  0  0  0  0
    2.1434    1.2375    0.0000 N   0  0  0  0  0  0  0  0  0  0  0  0
    2.8579    0.8250    0.0000 C   0  0  0  0  0  0  0  0  0  0  0  0
    3.5724    1.2375    0.0000 C   0  0  0  0  0  0  0  0  0  0  0  0
    4.2868    0.8250    0.0000 C   0  0  0  0  0  0  0  0  0  0  0  0
    4.2868   -0.0000    0.0000 C   0  0  0  0  0  0  0  0  0  0  0  0
    3.5724   -0.4125    0.0000 C   0  0  0  0  0  0  0  0  0  0  0  0
    2.8579    0.0000    0.0000 C   0  0  0  0  0  0  0  0  0  0  0  0
    2.1434   -0.4125    0.0000 C   0  0  0  0  0  0  0  0  0  0  0  0
    2.1434   -1.2375    0.0000 O   0  0  0  0  0  0  0  0  0  0  0  0
    1.4289    0.0000    0.0000 C   0  0  0  0  0  0  0  0  0  0  0  0
    0.7145   -0.4125    0.0000 C   0  0  0  0  0  0  0  0  0  0  0  0
    0.0000    0.0000    0.0000 C   0  0  0  0  0  0  0  0  0  0  0  0
    0.0000    0.8250    0.0000 C   0  0  0  0  0  0  0  0  0  0  0  0
    0.7145    1.2375    0.0000 C   0  0  0  0  0  0  0  0  0  0  0  0
    1.4289    0.8250    0.0000 C   0  0  0  0  0  0  0  0  0  0  0  0
  1  2  1  0  0  0  0
  2  3  1  0  0  0  0
  3  4  1  0  0  0  0
  4  5  1  0  0  0  0
  5  6  1  0  0  0  0
  5 19  1  0  0  0  0
  6  7  2  0  0  0  0
  6 11  1  0  0  0  0
  7  8  1  0  0  0  0
  8  9  2  0  0  0  0
  9 10  1  0  0  0  0
 10 11  2  0  0  0  0
 11 12  1  0  0  0  0
 12 13  2  0  0  0  0
 12 14  1  0  0  0  0
 14 15  2  0  0  0  0
 14 19  1  0  0  0  0
 15 16  1  0  0  0  0
 16 17  2  0  0  0  0
 17 18  1  0  0  0  0
 18 19  2  0  0  0  0
M  END
$$$$

 OpenBabel12191814062D

 33 36  0  0  0  0  0  0  0  0999 V2000
   -7.7525   -3.0723    0.0000 C   0  0  0  0  0  0  0  0  0  0  0  0
   -8.4669   -2.6598    0.0000 N   0  0  0  0  0  0  0  0  0  0  0  0
   -8.4669   -1.8348    0.0000 C   0  0  0  0  0  0  0  0  0  0  0  0
   -9.1814   -1.4223    0.0000 O   0  0  0  0  0  0  0  0  0  0  0  0
   -7.7525   -1.4223    0.0000 C   0  0  0  0  0  0  0  0  0  0  0  0
   -7.0380   -1.8348    0.0000 C   0  0  0  0  0  0  0  0  0  0  0  0
   -6.3235   -1.4223    0.0000 C   0  0  0  0  0  0  0  0  0  0  0  0
   -6.3235   -0.5973    0.0000 C   0  0  0  0  0  0  0  0  0  0  0  0
   -5.6091   -0.1848    0.0000 C   0  0  0  0  0  0  0  0  0  0  0  0
   -4.8946   -0.5973    0.0000 C   0  0  0  0  0  0  0  0  0  0  0  0
   -4.8946   -1.4223    0.0000 C   0  0  0  0  0  0  0  0  0  0  0  0
   -5.6091   -1.8348    0.0000 N   0  0  0  0  0  0  0  0  0  0  0  0
   -4.1801   -1.8348    0.0000 C   0  0  0  0  0  0  0  0  0  0  0  0
   -4.1801   -2.6598    0.0000 C   0  0  0  0  0  0  0  0  0  0  0  0
   -3.4656   -3.0723    0.0000 C   0  0  0  0  0  0  0  0  0  0  0  0
   -3.4656   -3.8973    0.0000 N   0  0  0  0  0  0  0  0  0  0  0  0
   -2.7982   -4.3822    0.0000 C   0  0  0  0  0  0  0  0  0  0  0  0
   -3.0531   -5.1669    0.0000 C   0  0  0  0  0  0  0  0  0  0  0  0
   -3.8781   -5.1669    0.0000 C   0  0  0  0  0  0  0  0  0  0  0  0
   -4.1331   -4.3822    0.0000 C   0  0  0  0  0  0  0  0  0  0  0  0
   -3.4656   -1.4223    0.0000 C   0  0  0  0  0  0  0  0  0  0  0  0
   -3.4656   -0.5973    0.0000 C   0  0  0  0  0  0  0  0  0  0  0  0
   -2.7512   -0.1848    0.0000 C   0  0  0  0  0  0  0  0  0  0  0  0
   -2.0367   -0.5973    0.0000 C   0  0  0  0  0  0  0  0  0  0  0  0
   -1.3222   -0.1848    0.0000 C   0  0  0  0  0  0  0  0  0  0  0  0
   -2.0367   -1.4223    0.0000 C   0  0  0  0  0  0  0  0  0  0  0  0
   -2.7512   -1.8348    0.0000 C   0  0  0  0  0  0  0  0  0  0  0  0
   -9.1814   -3.0723    0.0000 C   0  0  0  0  0  0  0  0  0  0  0  0
   -9.1814   -3.8973    0.0000 C   0  0  0  0  0  0  0  0  0  0  0  0
   -9.8959   -4.3098    0.0000 C   0  0  0  0  0  0  0  0  0  0  0  0
  -10.6104   -3.8973    0.0000 C   0  0  0  0  0  0  0  0  0  0  0  0
  -10.6104   -3.0723    0.0000 C   0  0  0  0  0  0  0  0  0  0  0  0
   -9.8959   -2.6598    0.0000 C   0  0  0  0  0  0  0  0  0  0  0  0
  1  2  1  0  0  0  0
  2  3  1  0  0  0  0
  2 28  1  0  0  0  0
  3  4  2  0  0  0  0
  3  5  1  0  0  0  0
  5  6  2  0  0  0  0
  6  7  1  0  0  0  0
  7  8  2  0  0  0  0
  7 12  1  0  0  0  0
  8  9  1  0  0  0  0
  9 10  2  0  0  0  0
 10 11  1  0  0  0  0
 11 12  2  0  0  0  0
 11 13  1  0  0  0  0
 13 14  2  0  0  0  0
 13 21  1  0  0  0  0
 14 15  1  0  0  0  0
 15 16  1  0  0  0  0
 16 17  1  0  0  0  0
 16 20  1  0  0  0  0
 17 18  1  0  0  0  0
 18 19  1  0  0  0  0
 19 20  1  0  0  0  0
 21 22  2  0  0  0  0
 21 27  1  0  0  0  0
 22 23  1  0  0  0  0
 23 24  2  0  0  0  0
 24 25  1  0  0  0  0
 24 26  1  0  0  0  0
 26 27  2  0  0  0  0
 28 29  2  0  0  0  0
 28 33  1  0  0  0  0
 29 30  1  0  0  0  0
 30 31  2  0  0  0  0
 31 32  1  0  0  0  0
 32 33  2  0  0  0  0
M  END
$$$$

 OpenBabel12191814062D

 24 27  0  0  0  0  0  0  0  0999 V2000
    2.1434   -2.8875    0.0000 C   0  0  0  0  0  0  0  0  0  0  0  0
    1.4289   -2.4750    0.0000 N   0  0  0  0  0  0  0  0  0  0  0  0
    0.7145   -2.8875    0.0000 C   0  0  0  0  0  0  0  0  0  0  0  0
    0.0000   -2.4750    0.0000 S   0  0  0  0  0  0  0  0  0  0  0  0
    0.7145   -3.7125    0.0000 S   0  0  0  0  0  0  0  0  0  0  0  0
    0.0000   -4.1250    0.0000 C   0  0  0  0  0  0  0  0  0  0  0  0
   -0.0862   -4.9455    0.0000 N   0  0  0  0  0  0  0  0  0  0  0  0
   -0.8932   -5.1170    0.0000 C   0  0  0  0  0  0  0  0  0  0  0  0
   -1.3057   -5.8315    0.0000 C   0  0  0  0  0  0  0  0  0  0  0  0
   -2.1307   -5.8315    0.0000 C   0  0  0  0  0  0  0  0  0  0  0  0
   -2.5432   -5.1170    0.0000 C   0  0  0  0  0  0  0  0  0  0  0  0
   -2.1307   -4.4025    0.0000 C   0  0  0  0  0  0  0  0  0  0  0  0
   -1.3057   -4.4025    0.0000 C   0  0  0  0  0  0  0  0  0  0  0  0
   -0.7537   -3.7894    0.0000 O   0  0  0  0  0  0  0  0  0  0  0  0
    1.4289   -1.6500    0.0000 C   0  0  0  0  0  0  0  0  0  0  0  0
    0.7145   -1.2375    0.0000 C   0  0  0  0  0  0  0  0  0  0  0  0
    0.7145   -0.4125    0.0000 C   0  0  0  0  0  0  0  0  0  0  0  0
    1.4289    0.0000    0.0000 C   0  0  0  0  0  0  0  0  0  0  0  0
    2.1434   -0.4125    0.0000 C   0  0  0  0  0  0  0  0  0  0  0  0
    2.8579    0.0000    0.0000 C   0  0  0  0  0  0  0  0  0  0  0  0
    3.5724   -0.4125    0.0000 C   0  0  0  0  0  0  0  0  0  0  0  0
    3.5724   -1.2375    0.0000 C   0  0  0  0  0  0  0  0  0  0  0  0
    2.8579   -1.6500    0.0000 C   0  0  0  0  0  0  0  0  0  0  0  0
    2.1434   -1.2375    0.0000 C   0  0  0  0  0  0  0  0  0  0  0  0
  1  2  1  0  0  0  0
  2  3  1  0  0  0  0
  2 15  1  0  0  0  0
  3  4  2  0  0  0  0
  3  5  1  0  0  0  0
  5  6  1  0  0  0  0
  6  7  2  0  0  0  0
  6 14  1  0  0  0  0
  7  8  1  0  0  0  0
  8  9  2  0  0  0  0
  8 13  1  0  0  0  0
  9 10  1  0  0  0  0
 10 11  2  0  0  0  0
 11 12  1  0  0  0  0
 12 13  2  0  0  0  0
 13 14  1  0  0  0  0
 15 16  2  0  0  0  0
 15 24  1  0  0  0  0
 16 17  1  0  0  0  0
 17 18  2  0  0  0  0
 18 19  1  0  0  0  0
 19 20  2  0  0  0  0
 19 24  1  0  0  0  0
 20 21  1  0  0  0  0
 21 22  2  0  0  0  0
 22 23  1  0  0  0  0
 23 24  2  0  0  0  0
M  END
$$$$

 OpenBabel12191814062D

 38 41  0  0  0  0  0  0  0  0999 V2000
   -4.9500   -2.6961    0.0000 C   0  0  0  0  0  0  0  0  0  0  0  0
   -4.1250   -2.6961    0.0000 N   0  0  0  0  0  0  0  0  0  0  0  0
   -3.7125   -1.9816    0.0000 C   0  0  0  0  0  0  0  0  0  0  0  0
   -3.7125   -3.4105    0.0000 C   0  0  0  0  0  0  0  0  0  0  0  0
   -4.1250   -4.1250    0.0000 O   0  0  0  0  0  0  0  0  0  0  0  0
   -2.8875   -3.4105    0.0000 C   0  0  0  0  0  0  0  0  0  0  0  0
   -2.8875   -2.5855    0.0000 C   0  0  0  0  0  0  0  0  0  0  0  0
   -2.1730   -2.1730    0.0000 C   0  0  0  0  0  0  0  0  0  0  0  0
   -2.1730   -1.3480    0.0000 N   0  0  0  0  0  0  0  0  0  0  0  0
   -2.8875   -0.9355    0.0000 C   0  0  0  0  0  0  0  0  0  0  0  0
   -2.8875   -0.1105    0.0000 C   0  0  0  0  0  0  0  0  0  0  0  0
   -2.1730    0.3020    0.0000 C   0  0  0  0  0  0  0  0  0  0  0  0
   -2.7033    0.9340    0.0000 O   0  0  0  0  0  0  0  0  0  0  0  0
   -1.4586   -0.1105    0.0000 C   0  0  0  0  0  0  0  0  0  0  0  0
   -1.4586   -0.9355    0.0000 C   0  0  0  0  0  0  0  0  0  0  0  0
   -1.6427    0.9340    0.0000 C   0  0  0  0  0  0  0  0  0  0  0  0
   -1.9249    1.7092    0.0000 C   0  0  0  0  0  0  0  0  0  0  0  0
   -1.3946    2.3412    0.0000 C   0  0  0  0  0  0  0  0  0  0  0  0
   -0.5821    2.1979    0.0000 C   0  0  0  0  0  0  0  0  0  0  0  0
   -0.0518    2.8299    0.0000 Cl  0  0  0  0  0  0  0  0  0  0  0  0
   -0.3000    1.4227    0.0000 C   0  0  0  0  0  0  0  0  0  0  0  0
   -0.8303    0.7907    0.0000 C   0  0  0  0  0  0  0  0  0  0  0  0
    0.5125    1.2794    0.0000 C   0  0  0  0  0  0  0  0  0  0  0  0
    1.3250    1.1362    0.0000 F   0  0  0  0  0  0  0  0  0  0  0  0
    0.3692    0.4670    0.0000 F   0  0  0  0  0  0  0  0  0  0  0  0
    0.6558    2.0919    0.0000 F   0  0  0  0  0  0  0  0  0  0  0  0
   -2.8875   -4.2355    0.0000 C   0  0  0  0  0  0  0  0  0  0  0  0
   -2.1730   -4.6480    0.0000 C   0  0  0  0  0  0  0  0  0  0  0  0
   -2.1730   -5.4730    0.0000 C   0  0  0  0  0  0  0  0  0  0  0  0
   -2.8875   -5.8855    0.0000 C   0  0  0  0  0  0  0  0  0  0  0  0
   -3.6020   -5.4730    0.0000 C   0  0  0  0  0  0  0  0  0  0  0  0
   -3.6020   -4.6480    0.0000 C   0  0  0  0  0  0  0  0  0  0  0  0
   -2.0625   -3.4105    0.0000 C   0  0  0  0  0  0  0  0  0  0  0  0
   -1.6500   -2.6961    0.0000 C   0  0  0  0  0  0  0  0  0  0  0  0
   -0.8250   -2.6961    0.0000 C   0  0  0  0  0  0  0  0  0  0  0  0
   -0.4125   -3.4105    0.0000 C   0  0  0  0  0  0  0  0  0  0  0  0
   -0.8250   -4.1250    0.0000 C   0  0  0  0  0  0  0  0  0  0  0  0
   -1.6500   -4.1250    0.0000 C   0  0  0  0  0  0  0  0  0  0  0  0
  1  2  1  0  0  0  0
  2  3  1  0  0  0  0
  2  4  1  0  0  0  0
  4  5  2  0  0  0  0
  4  6  1  0  0  0  0
  6  7  1  0  0  0  0
  6 27  1  0  0  0  0
  6 33  1  0  0  0  0
  7  8  1  0  0  0  0
  8  9  1  0  0  0  0
  9 10  1  0  0  0  0
  9 15  1  0  0  0  0
 10 11  1  0  0  0  0
 11 12  1  0  0  0  0
 12 13  1  0  0  0  0
 12 14  1  0  0  0  0
 12 16  1  0  0  0  0
 14 15  1  0  0  0  0
 16 17  2  0  0  0  0
 16 22  1  0  0  0  0
 17 18  1  0  0  0  0
 18 19  2  0  0  0  0
 19 20  1  0  0  0  0
 19 21  1  0  0  0  0
 21 22  2  0  0  0  0
 21 23  1  0  0  0  0
 23 24  1  0  0  0  0
 23 25  1  0  0  0  0
 23 26  1  0  0  0  0
 27 28  2  0  0  0  0
 27 32  1  0  0  0  0
 28 29  1  0  0  0  0
 29 30  2  0  0  0  0
 30 31  1  0  0  0  0
 31 32  2  0  0  0  0
 33 34  2  0  0  0  0
 33 38  1  0  0  0  0
 34 35  1  0  0  0  0
 35 36  2  0  0  0  0
 36 37  1  0  0  0  0
 37 38  2  0  0  0  0
M  END
$$$$

 OpenBabel12191814062D

 35 38  0  0  0  0  0  0  0  0999 V2000
   -0.7145    4.5375    0.0000 C   0  0  0  0  0  0  0  0  0  0  0  0
   -0.7145    3.7125    0.0000 N   0  0  0  0  0  0  0  0  0  0  0  0
   -1.4289    3.3000    0.0000 C   0  0  0  0  0  0  0  0  0  0  0  0
    0.0000    3.3000    0.0000 C   0  0  0  0  0  0  0  0  0  0  0  0
    0.0000    2.4750    0.0000 C   0  0  0  0  0  0  0  0  0  0  0  0
    0.7145    2.0625    0.0000 C   0  0  0  0  0  0  0  0  0  0  0  0
    0.7145    1.2375    0.0000 C   0  0  0  0  0  0  0  0  0  0  0  0
    1.4289    0.8250    0.0000 C   0  0  0  0  0  0  0  0  0  0  0  0
    1.4289   -0.0000    0.0000 C   0  0  0  0  0  0  0  0  0  0  0  0
    0.7145   -0.4125    0.0000 C   0  0  0  0  0  0  0  0  0  0  0  0
    0.0000   -0.0000    0.0000 C   0  0  0  0  0  0  0  0  0  0  0  0
    0.0000    0.8250    0.0000 C   0  0  0  0  0  0  0  0  0  0  0  0
    0.7145   -1.2375    0.0000 C   0  0  0  0  0  0  0  0  0  0  0  0
    1.3819   -1.7224    0.0000 N   0  0  0  0  0  0  0  0  0  0  0  0
    1.1270   -2.5070    0.0000 C   0  0  0  0  0  0  0  0  0  0  0  0
    0.3020   -2.5070    0.0000 C   0  0  0  0  0  0  0  0  0  0  0  0
    0.0470   -1.7224    0.0000 N   0  0  0  0  0  0  0  0  0  0  0  0
   -0.1830   -3.1745    0.0000 C   0  0  0  0  0  0  0  0  0  0  0  0
    0.1526   -3.9282    0.0000 C   0  0  0  0  0  0  0  0  0  0  0  0
   -0.3323   -4.5956    0.0000 C   0  0  0  0  0  0  0  0  0  0  0  0
   -1.1528   -4.5094    0.0000 C   0  0  0  0  0  0  0  0  0  0  0  0
   -1.4884   -3.7557    0.0000 C   0  0  0  0  0  0  0  0  0  0  0  0
   -1.0034   -3.0882    0.0000 C   0  0  0  0  0  0  0  0  0  0  0  0
   -1.6377   -5.1768    0.0000 N   0  0  0  0  0  0  0  0  0  0  0  0
   -1.3022   -5.9305    0.0000 C   0  0  0  0  0  0  0  0  0  0  0  0
   -2.4582   -5.0906    0.0000 C   0  0  0  0  0  0  0  0  0  0  0  0
    1.6119   -3.1745    0.0000 C   0  0  0  0  0  0  0  0  0  0  0  0
    2.4324   -3.0882    0.0000 C   0  0  0  0  0  0  0  0  0  0  0  0
    2.9173   -3.7557    0.0000 C   0  0  0  0  0  0  0  0  0  0  0  0
    2.5817   -4.5094    0.0000 C   0  0  0  0  0  0  0  0  0  0  0  0
    1.7613   -4.5956    0.0000 C   0  0  0  0  0  0  0  0  0  0  0  0
    1.2763   -3.9282    0.0000 C   0  0  0  0  0  0  0  0  0  0  0  0
    3.0667   -5.1768    0.0000 N   0  0  0  0  0  0  0  0  0  0  0  0
    2.7311   -5.9305    0.0000 C   0  0  0  0  0  0  0  0  0  0  0  0
    3.8871   -5.0906    0.0000 C   0  0  0  0  0  0  0  0  0  0  0  0
  1  2  1  0  0  0  0
  2  3  1  0  0  0  0
  2  4  1  0  0  0  0
  4  5  1  0  0  0  0
  5  6  2  0  0  0  0
  6  7  1  0  0  0  0
  7  8  2  0  0  0  0
  7 12  1  0  0  0  0
  8  9  1  0  0  0  0
  9 10  2  0  0  0  0
 10 11  1  0  0  0  0
 10 13  1  0  0  0  0
 11 12  2  0  0  0  0
 13 14  1  0  0  0  0
 13 17  2  0  0  0  0
 14 15  1  0  0  0  0
 15 16  2  0  0  0  0
 15 27  1  0  0  0  0
 16 17  1  0  0  0  0
 16 18  1  0  0  0  0
 18 19  2  0  0  0  0
 18 23  1  0  0  0  0
 19 20  1  0  0  0  0
 20 21  2  0  0  0  0
 21 22  1  0  0  0  0
 21 24  1  0  0  0  0
 22 23  2  0  0  0  0
 24 25  1  0  0  0  0
 24 26  1  0  0  0  0
 27 28  2  0  0  0  0
 27 32  1  0  0  0  0
 28 29  1  0  0  0  0
 29 30  2  0  0  0  0
 30 31  1  0  0  0  0
 30 33  1  0  0  0  0
 31 32  2  0  0  0  0
 33 34  1  0  0  0  0
 33 35  1  0  0  0  0
M  END
$$$$

 OpenBabel12191814062D

 28 31  0  0  0  0  0  0  0  0999 V2000
    1.4289   -4.1250    0.0000 C   0  0  0  0  0  0  0  0  0  0  0  0
    0.7145   -3.7125    0.0000 N   0  0  0  0  0  0  0  0  0  0  0  0
    0.0000   -4.1250    0.0000 C   0  0  0  0  0  0  0  0  0  0  0  0
    0.7145   -2.8875    0.0000 C   0  0  0  0  0  0  0  0  0  0  0  0
    0.0000   -2.4750    0.0000 C   0  0  0  0  0  0  0  0  0  0  0  0
    0.0000   -1.6500    0.0000 C   0  0  0  0  0  0  0  0  0  0  0  0
    0.7145   -1.2375    0.0000 C   0  0  0  0  0  0  0  0  0  0  0  0
    1.4289   -1.6500    0.0000 C   0  0  0  0  0  0  0  0  0  0  0  0
    1.4289   -2.4750    0.0000 C   0  0  0  0  0  0  0  0  0  0  0  0
    0.7145   -0.4125    0.0000 C   0  0  3  0  0  0  0  0  0  0  0  0
   -0.0000   -0.0000    0.0000 C   0  0  0  0  0  0  0  0  0  0  0  0
   -0.0000    0.8250    0.0000 C   0  0  0  0  0  0  0  0  0  0  0  0
    0.7145    1.2375    0.0000 O   0  0  0  0  0  0  0  0  0  0  0  0
    1.4289    0.8250    0.0000 C   0  0  0  0  0  0  0  0  0  0  0  0
    2.1434    1.2375    0.0000 N   0  0  0  0  0  0  0  0  0  0  0  0
    1.4289    0.0000    0.0000 C   0  0  0  0  0  0  0  0  0  0  0  0
    2.1434   -0.4125    0.0000 C   0  0  0  0  0  0  0  0  0  0  0  0
    2.8579   -0.8250    0.0000 N   0  0  0  0  0  0  0  0  0  0  0  0
   -0.7846    1.0799    0.0000 N   0  0  0  0  0  0  0  0  0  0  0  0
   -1.2695    0.4125    0.0000 N   0  0  0  0  0  0  0  0  0  0  0  0
   -0.7846   -0.2549    0.0000 C   0  0  0  0  0  0  0  0  0  0  0  0
   -1.0396   -1.0396    0.0000 C   0  0  0  0  0  0  0  0  0  0  0  0
   -0.4875   -1.6527    0.0000 C   0  0  0  0  0  0  0  0  0  0  0  0
   -0.7425   -2.4373    0.0000 C   0  0  0  0  0  0  0  0  0  0  0  0
   -1.5494   -2.6088    0.0000 C   0  0  0  0  0  0  0  0  0  0  0  0
   -1.8044   -3.3934    0.0000 C   0  0  0  0  0  0  0  0  0  0  0  0
   -2.1015   -1.9957    0.0000 C   0  0  0  0  0  0  0  0  0  0  0  0
   -1.8465   -1.2111    0.0000 C   0  0  0  0  0  0  0  0  0  0  0  0
  1  2  1  0  0  0  0
  2  3  1  0  0  0  0
  2  4  1  0  0  0  0
  4  5  2  0  0  0  0
  4  9  1  0  0  0  0
  5  6  1  0  0  0  0
  6  7  2  0  0  0  0
  7  8  1  0  0  0  0
  7 10  1  0  0  0  0
  8  9  2  0  0  0  0
 10 11  1  0  0  0  0
 10 16  1  0  0  0  0
 11 12  2  0  0  0  0
 11 21  1  0  0  0  0
 12 13  1  0  0  0  0
 12 19  1  0  0  0  0
 13 14  1  0  0  0  0
 14 15  1  0  0  0  0
 14 16  2  0  0  0  0
 16 17  1  0  0  0  0
 17 18  3  0  0  0  0
 19 20  1  0  0  0  0
 20 21  2  0  0  0  0
 21 22  1  0  0  0  0
 22 23  2  0  0  0  0
 22 28  1  0  0  0  0
 23 24  1  0  0  0  0
 24 25  2  0  0  0  0
 25 26  1  0  0  0  0
 25 27  1  0  0  0  0
 27 28  2  0  0  0  0
M  END
$$$$

 OpenBabel12191814062D

 33 36  0  0  0  0  0  0  0  0999 V2000
    0.0000    2.4750    0.0000 C   0  0  0  0  0  0  0  0  0  0  0  0
    0.7145    2.0625    0.0000 N   0  0  0  0  0  0  0  0  0  0  0  0
    1.4289    2.4750    0.0000 C   0  0  0  0  0  0  0  0  0  0  0  0
    0.7145    1.2375    0.0000 C   0  0  0  0  0  0  0  0  0  0  0  0
    1.4289    0.8250    0.0000 C   0  0  0  0  0  0  0  0  0  0  0  0
    1.4289   -0.0000    0.0000 C   0  0  0  0  0  0  0  0  0  0  0  0
    0.7145   -0.4125    0.0000 C   0  0  0  0  0  0  0  0  0  0  0  0
    0.0000   -0.0000    0.0000 C   0  0  0  0  0  0  0  0  0  0  0  0
    0.0000    0.8250    0.0000 C   0  0  0  0  0  0  0  0  0  0  0  0
    0.7145   -1.2375    0.0000 C   0  0  0  0  0  0  0  0  0  0  0  0
    1.3819   -1.7224    0.0000 N   0  0  0  0  0  0  0  0  0  0  0  0
    1.1270   -2.5070    0.0000 C   0  0  0  0  0  0  0  0  0  0  0  0
    0.3020   -2.5070    0.0000 N   0  0  0  0  0  0  0  0  0  0  0  0
    0.0470   -1.7224    0.0000 C   0  0  0  0  0  0  0  0  0  0  0  0
   -0.7376   -1.4675    0.0000 C   0  0  0  0  0  0  0  0  0  0  0  0
   -1.3507   -2.0195    0.0000 C   0  0  0  0  0  0  0  0  0  0  0  0
   -2.1353   -1.7646    0.0000 C   0  0  0  0  0  0  0  0  0  0  0  0
   -2.3068   -0.9576    0.0000 C   0  0  0  0  0  0  0  0  0  0  0  0
   -1.6937   -0.4056    0.0000 C   0  0  0  0  0  0  0  0  0  0  0  0
   -0.9091   -0.6605    0.0000 C   0  0  0  0  0  0  0  0  0  0  0  0
   -3.0915   -0.7027    0.0000 N   0  0  0  0  0  0  0  0  0  0  0  0
   -3.2630    0.1043    0.0000 C   0  0  0  0  0  0  0  0  0  0  0  0
   -3.7045   -1.2547    0.0000 C   0  0  0  0  0  0  0  0  0  0  0  0
    1.6119   -3.1745    0.0000 C   0  0  0  0  0  0  0  0  0  0  0  0
    2.4324   -3.0882    0.0000 C   0  0  0  0  0  0  0  0  0  0  0  0
    2.9173   -3.7557    0.0000 C   0  0  0  0  0  0  0  0  0  0  0  0
    2.5817   -4.5094    0.0000 C   0  0  0  0  0  0  0  0  0  0  0  0
    3.0667   -5.1768    0.0000 C   0  0  0  0  0  0  0  0  0  0  0  0
    2.7311   -5.9305    0.0000 C   0  0  0  0  0  0  0  0  0  0  0  0
    3.2160   -6.5979    0.0000 C   0  0  0  0  0  0  0  0  0  0  0  0
    3.7010   -7.2654    0.0000 N   0  0  0  0  0  0  0  0  0  0  0  0
    1.7613   -4.5956    0.0000 C   0  0  0  0  0  0  0  0  0  0  0  0
    1.2763   -3.9282    0.0000 C   0  0  0  0  0  0  0  0  0  0  0  0
  1  2  1  0  0  0  0
  2  3  1  0  0  0  0
  2  4  1  0  0  0  0
  4  5  2  0  0  0  0
  4  9  1  0  0  0  0
  5  6  1  0  0  0  0
  6  7  2  0  0  0  0
  7  8  1  0  0  0  0
  7 10  1  0  0  0  0
  8  9  2  0  0  0  0
 10 11  1  0  0  0  0
 10 14  2  0  0  0  0
 11 12  1  0  0  0  0
 12 13  2  0  0  0  0
 12 24  1  0  0  0  0
 13 14  1  0  0  0  0
 14 15  1  0  0  0  0
 15 16  2  0  0  0  0
 15 20  1  0  0  0  0
 16 17  1  0  0  0  0
 17 18  2  0  0  0  0
 18 19  1  0  0  0  0
 18 21  1  0  0  0  0
 19 20  2  0  0  0  0
 21 22  1  0  0  0  0
 21 23  1  0  0  0  0
 24 25  2  0  0  0  0
 24 33  1  0  0  0  0
 25 26  1  0  0  0  0
 26 27  2  0  0  0  0
 27 28  1  0  0  0  0
 27 32  1  0  0  0  0
 28 29  2  0  0  0  0
 29 30  1  0  0  0  0
 30 31  3  0  0  0  0
 32 33  2  0  0  0  0
M  END
$$$$

 OpenBabel12191814062D

 34 37  0  0  0  0  0  0  0  0999 V2000
    0.0000    2.4750    0.0000 C   0  0  0  0  0  0  0  0  0  0  0  0
    0.7145    2.0625    0.0000 N   0  0  0  0  0  0  0  0  0  0  0  0
    1.4289    2.4750    0.0000 C   0  0  0  0  0  0  0  0  0  0  0  0
    0.7145    1.2375    0.0000 C   0  0  0  0  0  0  0  0  0  0  0  0
    1.4289    0.8250    0.0000 C   0  0  0  0  0  0  0  0  0  0  0  0
    1.4289   -0.0000    0.0000 C   0  0  0  0  0  0  0  0  0  0  0  0
    0.7145   -0.4125    0.0000 C   0  0  0  0  0  0  0  0  0  0  0  0
    0.0000   -0.0000    0.0000 C   0  0  0  0  0  0  0  0  0  0  0  0
    0.0000    0.8250    0.0000 C   0  0  0  0  0  0  0  0  0  0  0  0
    0.7145   -1.2375    0.0000 C   0  0  0  0  0  0  0  0  0  0  0  0
    1.3819   -1.7224    0.0000 N   0  0  0  0  0  0  0  0  0  0  0  0
    1.1270   -2.5070    0.0000 C   0  0  0  0  0  0  0  0  0  0  0  0
    0.3020   -2.5070    0.0000 N   0  0  0  0  0  0  0  0  0  0  0  0
    0.0470   -1.7224    0.0000 C   0  0  0  0  0  0  0  0  0  0  0  0
   -0.7376   -1.4675    0.0000 C   0  0  0  0  0  0  0  0  0  0  0  0
   -1.3507   -2.0195    0.0000 C   0  0  0  0  0  0  0  0  0  0  0  0
   -2.1353   -1.7646    0.0000 C   0  0  0  0  0  0  0  0  0  0  0  0
   -2.3068   -0.9576    0.0000 C   0  0  0  0  0  0  0  0  0  0  0  0
   -1.6937   -0.4056    0.0000 C   0  0  0  0  0  0  0  0  0  0  0  0
   -0.9091   -0.6605    0.0000 C   0  0  0  0  0  0  0  0  0  0  0  0
   -3.0915   -0.7027    0.0000 N   0  0  0  0  0  0  0  0  0  0  0  0
   -3.2630    0.1043    0.0000 C   0  0  0  0  0  0  0  0  0  0  0  0
   -3.7045   -1.2547    0.0000 C   0  0  0  0  0  0  0  0  0  0  0  0
    1.6119   -3.1745    0.0000 C   0  0  0  0  0  0  0  0  0  0  0  0
    2.4324   -3.0882    0.0000 C   0  0  0  0  0  0  0  0  0  0  0  0
    2.9173   -3.7557    0.0000 C   0  0  0  0  0  0  0  0  0  0  0  0
    2.5817   -4.5094    0.0000 C   0  0  0  0  0  0  0  0  0  0  0  0
    3.0667   -5.1768    0.0000 C   0  0  0  0  0  0  0  0  0  0  0  0
    2.7311   -5.9305    0.0000 C   0  0  0  0  0  0  0  0  0  0  0  0
    3.2160   -6.5979    0.0000 C   0  0  0  0  0  0  0  0  0  0  0  0
    4.0365   -6.5117    0.0000 O   0  0  0  0  0  0  0  0  0  0  0  0
    2.8805   -7.3516    0.0000 O   0  0  0  0  0  0  0  0  0  0  0  0
    1.7613   -4.5956    0.0000 C   0  0  0  0  0  0  0  0  0  0  0  0
    1.2763   -3.9282    0.0000 C   0  0  0  0  0  0  0  0  0  0  0  0
  1  2  1  0  0  0  0
  2  3  1  0  0  0  0
  2  4  1  0  0  0  0
  4  5  2  0  0  0  0
  4  9  1  0  0  0  0
  5  6  1  0  0  0  0
  6  7  2  0  0  0  0
  7  8  1  0  0  0  0
  7 10  1  0  0  0  0
  8  9  2  0  0  0  0
 10 11  1  0  0  0  0
 10 14  2  0  0  0  0
 11 12  1  0  0  0  0
 12 13  2  0  0  0  0
 12 24  1  0  0  0  0
 13 14  1  0  0  0  0
 14 15  1  0  0  0  0
 15 16  2  0  0  0  0
 15 20  1  0  0  0  0
 16 17  1  0  0  0  0
 17 18  2  0  0  0  0
 18 19  1  0  0  0  0
 18 21  1  0  0  0  0
 19 20  2  0  0  0  0
 21 22  1  0  0  0  0
 21 23  1  0  0  0  0
 24 25  2  0  0  0  0
 24 34  1  0  0  0  0
 25 26  1  0  0  0  0
 26 27  2  0  0  0  0
 27 28  1  0  0  0  0
 27 33  1  0  0  0  0
 28 29  2  0  0  0  0
 29 30  1  0  0  0  0
 30 31  1  0  0  0  0
 30 32  2  0  0  0  0
 33 34  2  0  0  0  0
M  END
$$$$

 OpenBabel12191814062D

 38 42  0  0  0  0  0  0  0  0999 V2000
    4.1801   -0.0616    0.0000 C   0  0  0  0  0  0  0  0  0  0  0  0
    4.8946   -0.4741    0.0000 N   0  0  0  0  0  0  0  0  0  0  0  0
    5.6091   -0.0616    0.0000 C   0  0  0  0  0  0  0  0  0  0  0  0
    4.8946   -1.2991    0.0000 C   0  0  0  0  0  0  0  0  0  0  0  0
    5.6091   -1.7116    0.0000 C   0  0  0  0  0  0  0  0  0  0  0  0
    5.6091   -2.5366    0.0000 C   0  0  0  0  0  0  0  0  0  0  0  0
    4.8946   -2.9491    0.0000 C   0  0  0  0  0  0  0  0  0  0  0  0
    4.1801   -2.5366    0.0000 C   0  0  0  0  0  0  0  0  0  0  0  0
    4.1801   -1.7116    0.0000 C   0  0  0  0  0  0  0  0  0  0  0  0
    4.8946   -3.7741    0.0000 C   0  0  0  0  0  0  0  0  0  0  0  0
    5.5620   -4.2590    0.0000 N   0  0  0  0  0  0  0  0  0  0  0  0
    5.3071   -5.0437    0.0000 C   0  0  0  0  0  0  0  0  0  0  0  0
    4.4821   -5.0437    0.0000 N   0  0  0  0  0  0  0  0  0  0  0  0
    4.2272   -4.2590    0.0000 C   0  0  0  0  0  0  0  0  0  0  0  0
    3.4425   -4.0041    0.0000 C   0  0  0  0  0  0  0  0  0  0  0  0
    2.8294   -4.5561    0.0000 C   0  0  0  0  0  0  0  0  0  0  0  0
    2.0448   -4.3012    0.0000 C   0  0  0  0  0  0  0  0  0  0  0  0
    1.8733   -3.4942    0.0000 C   0  0  0  0  0  0  0  0  0  0  0  0
    2.4864   -2.9422    0.0000 C   0  0  0  0  0  0  0  0  0  0  0  0
    3.2710   -3.1971    0.0000 C   0  0  0  0  0  0  0  0  0  0  0  0
    1.0887   -3.2393    0.0000 N   0  0  0  0  0  0  0  0  0  0  0  0
    0.9171   -2.4323    0.0000 C   0  0  0  0  0  0  0  0  0  0  0  0
    0.4756   -3.7913    0.0000 C   0  0  0  0  0  0  0  0  0  0  0  0
    5.7920   -5.7111    0.0000 C   0  0  0  0  0  0  0  0  0  0  0  0
    6.6125   -5.6249    0.0000 C   0  0  0  0  0  0  0  0  0  0  0  0
    7.0974   -6.2923    0.0000 C   0  0  0  0  0  0  0  0  0  0  0  0
    6.7619   -7.0460    0.0000 C   0  0  0  0  0  0  0  0  0  0  0  0
    7.2468   -7.7134    0.0000 C   0  0  0  0  0  0  0  0  0  0  0  0
    6.9112   -8.4671    0.0000 C   0  0  0  0  0  0  0  0  0  0  0  0
    7.3961   -9.1345    0.0000 C   0  0  0  0  0  0  0  0  0  0  0  0
    7.0606   -9.8882    0.0000 N   0  0  0  0  0  0  0  0  0  0  0  0
    7.5455  -10.5556    0.0000 C   0  0  0  0  0  0  0  0  0  0  0  0
    7.2100  -11.3093    0.0000 C   0  0  0  0  0  0  0  0  0  0  0  0
    6.3895  -11.3955    0.0000 C   0  0  0  0  0  0  0  0  0  0  0  0
    5.9046  -10.7281    0.0000 C   0  0  0  0  0  0  0  0  0  0  0  0
    6.2401   -9.9744    0.0000 C   0  0  0  0  0  0  0  0  0  0  0  0
    5.9414   -7.1322    0.0000 C   0  0  0  0  0  0  0  0  0  0  0  0
    5.4565   -6.4648    0.0000 C   0  0  0  0  0  0  0  0  0  0  0  0
  1  2  1  0  0  0  0
  2  3  1  0  0  0  0
  2  4  1  0  0  0  0
  4  5  2  0  0  0  0
  4  9  1  0  0  0  0
  5  6  1  0  0  0  0
  6  7  2  0  0  0  0
  7  8  1  0  0  0  0
  7 10  1  0  0  0  0
  8  9  2  0  0  0  0
 10 11  1  0  0  0  0
 10 14  2  0  0  0  0
 11 12  1  0  0  0  0
 12 13  2  0  0  0  0
 12 24  1  0  0  0  0
 13 14  1  0  0  0  0
 14 15  1  0  0  0  0
 15 16  2  0  0  0  0
 15 20  1  0  0  0  0
 16 17  1  0  0  0  0
 17 18  2  0  0  0  0
 18 19  1  0  0  0  0
 18 21  1  0  0  0  0
 19 20  2  0  0  0  0
 21 22  1  0  0  0  0
 21 23  1  0  0  0  0
 24 25  2  0  0  0  0
 24 38  1  0  0  0  0
 25 26  1  0  0  0  0
 26 27  2  0  0  0  0
 27 28  1  0  0  0  0
 27 37  1  0  0  0  0
 28 29  2  0  0  0  0
 29 30  1  0  0  0  0
 30 31  1  0  0  0  0
 31 32  1  0  0  0  0
 31 36  1  0  0  0  0
 32 33  1  0  0  0  0
 33 34  1  0  0  0  0
 34 35  1  0  0  0  0
 35 36  1  0  0  0  0
 37 38  2  0  0  0  0
M  END
$$$$

 OpenBabel12191814062D

 38 42  0  0  0  0  0  0  0  0999 V2000
    4.1801   -0.0616    0.0000 C   0  0  0  0  0  0  0  0  0  0  0  0
    4.8946   -0.4741    0.0000 N   0  0  0  0  0  0  0  0  0  0  0  0
    5.6091   -0.0616    0.0000 C   0  0  0  0  0  0  0  0  0  0  0  0
    4.8946   -1.2991    0.0000 C   0  0  0  0  0  0  0  0  0  0  0  0
    5.6091   -1.7116    0.0000 C   0  0  0  0  0  0  0  0  0  0  0  0
    5.6091   -2.5366    0.0000 C   0  0  0  0  0  0  0  0  0  0  0  0
    4.8946   -2.9491    0.0000 C   0  0  0  0  0  0  0  0  0  0  0  0
    4.1801   -2.5366    0.0000 C   0  0  0  0  0  0  0  0  0  0  0  0
    4.1801   -1.7116    0.0000 C   0  0  0  0  0  0  0  0  0  0  0  0
    4.8946   -3.7741    0.0000 C   0  0  0  0  0  0  0  0  0  0  0  0
    5.5620   -4.2590    0.0000 N   0  0  0  0  0  0  0  0  0  0  0  0
    5.3071   -5.0437    0.0000 C   0  0  0  0  0  0  0  0  0  0  0  0
    4.4821   -5.0437    0.0000 N   0  0  0  0  0  0  0  0  0  0  0  0
    4.2272   -4.2590    0.0000 C   0  0  0  0  0  0  0  0  0  0  0  0
    3.4425   -4.0041    0.0000 C   0  0  0  0  0  0  0  0  0  0  0  0
    2.8294   -4.5561    0.0000 C   0  0  0  0  0  0  0  0  0  0  0  0
    2.0448   -4.3012    0.0000 C   0  0  0  0  0  0  0  0  0  0  0  0
    1.8733   -3.4942    0.0000 C   0  0  0  0  0  0  0  0  0  0  0  0
    2.4864   -2.9422    0.0000 C   0  0  0  0  0  0  0  0  0  0  0  0
    3.2710   -3.1971    0.0000 C   0  0  0  0  0  0  0  0  0  0  0  0
    1.0887   -3.2393    0.0000 N   0  0  0  0  0  0  0  0  0  0  0  0
    0.9171   -2.4323    0.0000 C   0  0  0  0  0  0  0  0  0  0  0  0
    0.4756   -3.7913    0.0000 C   0  0  0  0  0  0  0  0  0  0  0  0
    5.7920   -5.7111    0.0000 C   0  0  0  0  0  0  0  0  0  0  0  0
    6.6125   -5.6249    0.0000 C   0  0  0  0  0  0  0  0  0  0  0  0
    7.0974   -6.2923    0.0000 C   0  0  0  0  0  0  0  0  0  0  0  0
    6.7619   -7.0460    0.0000 C   0  0  0  0  0  0  0  0  0  0  0  0
    7.2468   -7.7134    0.0000 C   0  0  0  0  0  0  0  0  0  0  0  0
    6.9112   -8.4671    0.0000 C   0  0  0  0  0  0  0  0  0  0  0  0
    7.3961   -9.1345    0.0000 C   0  0  0  0  0  0  0  0  0  0  0  0
    7.0606   -9.8882    0.0000 N   0  0  0  0  0  0  0  0  0  0  0  0
    7.5455  -10.5556    0.0000 C   0  0  0  0  0  0  0  0  0  0  0  0
    7.2100  -11.3093    0.0000 C   0  0  0  0  0  0  0  0  0  0  0  0
    6.3895  -11.3955    0.0000 O   0  0  0  0  0  0  0  0  0  0  0  0
    5.9046  -10.7281    0.0000 C   0  0  0  0  0  0  0  0  0  0  0  0
    6.2401   -9.9744    0.0000 C   0  0  0  0  0  0  0  0  0  0  0  0
    5.9414   -7.1322    0.0000 C   0  0  0  0  0  0  0  0  0  0  0  0
    5.4565   -6.4648    0.0000 C   0  0  0  0  0  0  0  0  0  0  0  0
  1  2  1  0  0  0  0
  2  3  1  0  0  0  0
  2  4  1  0  0  0  0
  4  5  2  0  0  0  0
  4  9  1  0  0  0  0
  5  6  1  0  0  0  0
  6  7  2  0  0  0  0
  7  8  1  0  0  0  0
  7 10  1  0  0  0  0
  8  9  2  0  0  0  0
 10 11  1  0  0  0  0
 10 14  2  0  0  0  0
 11 12  1  0  0  0  0
 12 13  2  0  0  0  0
 12 24  1  0  0  0  0
 13 14  1  0  0  0  0
 14 15  1  0  0  0  0
 15 16  2  0  0  0  0
 15 20  1  0  0  0  0
 16 17  1  0  0  0  0
 17 18  2  0  0  0  0
 18 19  1  0  0  0  0
 18 21  1  0  0  0  0
 19 20  2  0  0  0  0
 21 22  1  0  0  0  0
 21 23  1  0  0  0  0
 24 25  2  0  0  0  0
 24 38  1  0  0  0  0
 25 26  1  0  0  0  0
 26 27  2  0  0  0  0
 27 28  1  0  0  0  0
 27 37  1  0  0  0  0
 28 29  2  0  0  0  0
 29 30  1  0  0  0  0
 30 31  1  0  0  0  0
 31 32  1  0  0  0  0
 31 36  1  0  0  0  0
 32 33  1  0  0  0  0
 33 34  1  0  0  0  0
 34 35  1  0  0  0  0
 35 36  1  0  0  0  0
 37 38  2  0  0  0  0
M  END
$$$$

 OpenBabel12191814062D

 39 43  0  0  0  0  0  0  0  0999 V2000
    0.0000   -2.4750    0.0000 C   0  0  0  0  0  0  0  0  0  0  0  0
    0.7145   -2.8875    0.0000 N   0  0  0  0  0  0  0  0  0  0  0  0
    1.4289   -2.4750    0.0000 C   0  0  0  0  0  0  0  0  0  0  0  0
    0.7145   -3.7125    0.0000 C   0  0  0  0  0  0  0  0  0  0  0  0
    1.4289   -4.1250    0.0000 C   0  0  0  0  0  0  0  0  0  0  0  0
    1.4289   -4.9500    0.0000 C   0  0  0  0  0  0  0  0  0  0  0  0
    0.7145   -5.3625    0.0000 C   0  0  0  0  0  0  0  0  0  0  0  0
    0.0000   -4.9500    0.0000 C   0  0  0  0  0  0  0  0  0  0  0  0
    0.0000   -4.1250    0.0000 C   0  0  0  0  0  0  0  0  0  0  0  0
    0.7145   -6.1875    0.0000 C   0  0  0  0  0  0  0  0  0  0  0  0
    1.3819   -6.6724    0.0000 N   0  0  0  0  0  0  0  0  0  0  0  0
    1.1270   -7.4570    0.0000 C   0  0  0  0  0  0  0  0  0  0  0  0
    0.3020   -7.4570    0.0000 N   0  0  0  0  0  0  0  0  0  0  0  0
    0.0470   -6.6724    0.0000 C   0  0  0  0  0  0  0  0  0  0  0  0
   -0.7376   -6.4175    0.0000 C   0  0  0  0  0  0  0  0  0  0  0  0
   -1.3507   -6.9695    0.0000 C   0  0  0  0  0  0  0  0  0  0  0  0
   -2.1353   -6.7146    0.0000 C   0  0  0  0  0  0  0  0  0  0  0  0
   -2.3068   -5.9076    0.0000 C   0  0  0  0  0  0  0  0  0  0  0  0
   -1.6937   -5.3556    0.0000 C   0  0  0  0  0  0  0  0  0  0  0  0
   -0.9091   -5.6105    0.0000 C   0  0  0  0  0  0  0  0  0  0  0  0
   -3.0915   -5.6527    0.0000 N   0  0  0  0  0  0  0  0  0  0  0  0
   -3.2630   -4.8457    0.0000 C   0  0  0  0  0  0  0  0  0  0  0  0
   -3.7045   -6.2047    0.0000 C   0  0  0  0  0  0  0  0  0  0  0  0
    1.6119   -8.1245    0.0000 C   0  0  0  0  0  0  0  0  0  0  0  0
    2.4324   -8.0382    0.0000 C   0  0  0  0  0  0  0  0  0  0  0  0
    2.9173   -8.7057    0.0000 C   0  0  0  0  0  0  0  0  0  0  0  0
    2.5817   -9.4594    0.0000 C   0  0  0  0  0  0  0  0  0  0  0  0
    3.0667  -10.1268    0.0000 C   0  0  0  0  0  0  0  0  0  0  0  0
    2.7311  -10.8805    0.0000 C   0  0  0  0  0  0  0  0  0  0  0  0
    3.2160  -11.5479    0.0000 C   0  0  0  0  0  0  0  0  0  0  0  0
    4.0365  -11.4617    0.0000 O   0  0  0  0  0  0  0  0  0  0  0  0
    4.5214  -12.1291    0.0000 C   0  0  0  0  0  0  0  0  0  0  0  0
    5.3419  -12.0429    0.0000 C   0  0  0  0  0  0  0  0  0  0  0  0
    5.8268  -12.7103    0.0000 C   0  0  0  0  0  0  0  0  0  0  0  0
    5.4913  -13.4640    0.0000 C   0  0  0  0  0  0  0  0  0  0  0  0
    4.6708  -13.5502    0.0000 C   0  0  0  0  0  0  0  0  0  0  0  0
    4.1859  -12.8828    0.0000 C   0  0  0  0  0  0  0  0  0  0  0  0
    1.7613   -9.5456    0.0000 C   0  0  0  0  0  0  0  0  0  0  0  0
    1.2763   -8.8782    0.0000 C   0  0  0  0  0  0  0  0  0  0  0  0
  1  2  1  0  0  0  0
  2  3  1  0  0  0  0
  2  4  1  0  0  0  0
  4  5  2  0  0  0  0
  4  9  1  0  0  0  0
  5  6  1  0  0  0  0
  6  7  2  0  0  0  0
  7  8  1  0  0  0  0
  7 10  1  0  0  0  0
  8  9  2  0  0  0  0
 10 11  1  0  0  0  0
 10 14  2  0  0  0  0
 11 12  1  0  0  0  0
 12 13  2  0  0  0  0
 12 24  1  0  0  0  0
 13 14  1  0  0  0  0
 14 15  1  0  0  0  0
 15 16  2  0  0  0  0
 15 20  1  0  0  0  0
 16 17  1  0  0  0  0
 17 18  2  0  0  0  0
 18 19  1  0  0  0  0
 18 21  1  0  0  0  0
 19 20  2  0  0  0  0
 21 22  1  0  0  0  0
 21 23  1  0  0  0  0
 24 25  2  0  0  0  0
 24 39  1  0  0  0  0
 25 26  1  0  0  0  0
 26 27  2  0  0  0  0
 27 28  1  0  0  0  0
 27 38  1  0  0  0  0
 28 29  2  0  0  0  0
 29 30  1  0  0  0  0
 30 31  1  0  0  0  0
 31 32  1  0  0  0  0
 32 33  2  0  0  0  0
 32 37  1  0  0  0  0
 33 34  1  0  0  0  0
 34 35  2  0  0  0  0
 35 36  1  0  0  0  0
 36 37  2  0  0  0  0
 38 39  2  0  0  0  0
M  END
$$$$

 OpenBabel12191814062D

 40 44  0  0  0  0  0  0  0  0999 V2000
    4.8946   -1.2991    0.0000 C   0  0  0  0  0  0  0  0  0  0  0  0
    5.6091   -1.7116    0.0000 N   0  0  0  0  0  0  0  0  0  0  0  0
    6.3235   -1.2991    0.0000 C   0  0  0  0  0  0  0  0  0  0  0  0
    5.6091   -2.5366    0.0000 C   0  0  0  0  0  0  0  0  0  0  0  0
    6.3235   -2.9491    0.0000 C   0  0  0  0  0  0  0  0  0  0  0  0
    6.3235   -3.7741    0.0000 C   0  0  0  0  0  0  0  0  0  0  0  0
    5.6091   -4.1866    0.0000 C   0  0  0  0  0  0  0  0  0  0  0  0
    4.8946   -3.7741    0.0000 C   0  0  0  0  0  0  0  0  0  0  0  0
    4.8946   -2.9491    0.0000 C   0  0  0  0  0  0  0  0  0  0  0  0
    5.6091   -5.0116    0.0000 C   0  0  0  0  0  0  0  0  0  0  0  0
    6.2765   -5.4965    0.0000 N   0  0  0  0  0  0  0  0  0  0  0  0
    6.0216   -6.2812    0.0000 C   0  0  0  0  0  0  0  0  0  0  0  0
    5.1966   -6.2812    0.0000 N   0  0  0  0  0  0  0  0  0  0  0  0
    4.9416   -5.4965    0.0000 C   0  0  0  0  0  0  0  0  0  0  0  0
    4.1570   -5.2416    0.0000 C   0  0  0  0  0  0  0  0  0  0  0  0
    3.5439   -5.7936    0.0000 C   0  0  0  0  0  0  0  0  0  0  0  0
    2.7593   -5.5387    0.0000 C   0  0  0  0  0  0  0  0  0  0  0  0
    2.5878   -4.7317    0.0000 C   0  0  0  0  0  0  0  0  0  0  0  0
    3.2009   -4.1797    0.0000 C   0  0  0  0  0  0  0  0  0  0  0  0
    3.9855   -4.4346    0.0000 C   0  0  0  0  0  0  0  0  0  0  0  0
    1.8031   -4.4768    0.0000 N   0  0  0  0  0  0  0  0  0  0  0  0
    1.6316   -3.6698    0.0000 C   0  0  0  0  0  0  0  0  0  0  0  0
    1.1900   -5.0288    0.0000 C   0  0  0  0  0  0  0  0  0  0  0  0
    6.5065   -6.9486    0.0000 C   0  0  0  0  0  0  0  0  0  0  0  0
    7.3270   -6.8624    0.0000 C   0  0  0  0  0  0  0  0  0  0  0  0
    7.8119   -7.5298    0.0000 C   0  0  0  0  0  0  0  0  0  0  0  0
    7.4763   -8.2835    0.0000 C   0  0  0  0  0  0  0  0  0  0  0  0
    7.9613   -8.9509    0.0000 C   0  0  0  0  0  0  0  0  0  0  0  0
    7.6257   -9.7046    0.0000 C   0  0  0  0  0  0  0  0  0  0  0  0
    8.1106  -10.3720    0.0000 C   0  0  0  0  0  0  0  0  0  0  0  0
    7.7751  -11.1257    0.0000 O   0  0  0  0  0  0  0  0  0  0  0  0
    8.2600  -11.7931    0.0000 C   0  0  0  0  0  0  0  0  0  0  0  0
    7.9244  -12.5468    0.0000 C   0  0  0  0  0  0  0  0  0  0  0  0
    8.4093  -13.2142    0.0000 C   0  0  0  0  0  0  0  0  0  0  0  0
    8.0738  -13.9679    0.0000 C   0  0  0  0  0  0  0  0  0  0  0  0
    7.2533  -14.0542    0.0000 C   0  0  0  0  0  0  0  0  0  0  0  0
    6.7684  -13.3867    0.0000 C   0  0  0  0  0  0  0  0  0  0  0  0
    7.1039  -12.6330    0.0000 C   0  0  0  0  0  0  0  0  0  0  0  0
    6.6558   -8.3697    0.0000 C   0  0  0  0  0  0  0  0  0  0  0  0
    6.1709   -7.7023    0.0000 C   0  0  0  0  0  0  0  0  0  0  0  0
  1  2  1  0  0  0  0
  2  3  1  0  0  0  0
  2  4  1  0  0  0  0
  4  5  2  0  0  0  0
  4  9  1  0  0  0  0
  5  6  1  0  0  0  0
  6  7  2  0  0  0  0
  7  8  1  0  0  0  0
  7 10  1  0  0  0  0
  8  9  2  0  0  0  0
 10 11  1  0  0  0  0
 10 14  2  0  0  0  0
 11 12  1  0  0  0  0
 12 13  2  0  0  0  0
 12 24  1  0  0  0  0
 13 14  1  0  0  0  0
 14 15  1  0  0  0  0
 15 16  2  0  0  0  0
 15 20  1  0  0  0  0
 16 17  1  0  0  0  0
 17 18  2  0  0  0  0
 18 19  1  0  0  0  0
 18 21  1  0  0  0  0
 19 20  2  0  0  0  0
 21 22  1  0  0  0  0
 21 23  1  0  0  0  0
 24 25  2  0  0  0  0
 24 40  1  0  0  0  0
 25 26  1  0  0  0  0
 26 27  2  0  0  0  0
 27 28  1  0  0  0  0
 27 39  1  0  0  0  0
 28 29  2  0  0  0  0
 29 30  1  0  0  0  0
 30 31  1  0  0  0  0
 31 32  1  0  0  0  0
 32 33  1  0  0  0  0
 33 34  2  0  0  0  0
 33 38  1  0  0  0  0
 34 35  1  0  0  0  0
 35 36  2  0  0  0  0
 36 37  1  0  0  0  0
 37 38  2  0  0  0  0
 39 40  2  0  0  0  0
M  END
$$$$

 OpenBabel12191814062D

 30 33  0  0  0  0  0  0  0  0999 V2000
    0.0000    2.4750    0.0000 C   0  0  0  0  0  0  0  0  0  0  0  0
    0.7145    2.0625    0.0000 N   0  0  0  0  0  0  0  0  0  0  0  0
    1.4289    2.4750    0.0000 C   0  0  0  0  0  0  0  0  0  0  0  0
    0.7145    1.2375    0.0000 C   0  0  0  0  0  0  0  0  0  0  0  0
    1.4289    0.8250    0.0000 C   0  0  0  0  0  0  0  0  0  0  0  0
    1.4289   -0.0000    0.0000 C   0  0  0  0  0  0  0  0  0  0  0  0
    0.7145   -0.4125    0.0000 C   0  0  0  0  0  0  0  0  0  0  0  0
    0.0000   -0.0000    0.0000 C   0  0  0  0  0  0  0  0  0  0  0  0
    0.0000    0.8250    0.0000 C   0  0  0  0  0  0  0  0  0  0  0  0
    0.7145   -1.2375    0.0000 C   0  0  0  0  0  0  0  0  0  0  0  0
    1.3819   -1.7224    0.0000 N   0  0  0  0  0  0  0  0  0  0  0  0
    1.1270   -2.5070    0.0000 C   0  0  0  0  0  0  0  0  0  0  0  0
    0.3020   -2.5070    0.0000 N   0  0  0  0  0  0  0  0  0  0  0  0
    0.0470   -1.7224    0.0000 C   0  0  0  0  0  0  0  0  0  0  0  0
   -0.7376   -1.4675    0.0000 C   0  0  0  0  0  0  0  0  0  0  0  0
   -1.3507   -2.0195    0.0000 C   0  0  0  0  0  0  0  0  0  0  0  0
   -2.1353   -1.7646    0.0000 C   0  0  0  0  0  0  0  0  0  0  0  0
   -2.3068   -0.9576    0.0000 C   0  0  0  0  0  0  0  0  0  0  0  0
   -1.6937   -0.4056    0.0000 C   0  0  0  0  0  0  0  0  0  0  0  0
   -0.9091   -0.6605    0.0000 C   0  0  0  0  0  0  0  0  0  0  0  0
   -3.0915   -0.7027    0.0000 N   0  0  0  0  0  0  0  0  0  0  0  0
   -3.7045   -1.2547    0.0000 C   0  0  0  0  0  0  0  0  0  0  0  0
   -3.2630    0.1043    0.0000 C   0  0  0  0  0  0  0  0  0  0  0  0
    1.6119   -3.1745    0.0000 C   0  0  0  0  0  0  0  0  0  0  0  0
    2.4324   -3.0882    0.0000 C   0  0  0  0  0  0  0  0  0  0  0  0
    2.9173   -3.7557    0.0000 C   0  0  0  0  0  0  0  0  0  0  0  0
    2.5817   -4.5094    0.0000 C   0  0  0  0  0  0  0  0  0  0  0  0
    3.0667   -5.1768    0.0000 O   0  0  0  0  0  0  0  0  0  0  0  0
    1.7613   -4.5956    0.0000 C   0  0  0  0  0  0  0  0  0  0  0  0
    1.2763   -3.9282    0.0000 C   0  0  0  0  0  0  0  0  0  0  0  0
  1  2  1  0  0  0  0
  2  3  1  0  0  0  0
  2  4  1  0  0  0  0
  4  5  2  0  0  0  0
  4  9  1  0  0  0  0
  5  6  1  0  0  0  0
  6  7  2  0  0  0  0
  7  8  1  0  0  0  0
  7 10  1  0  0  0  0
  8  9  2  0  0  0  0
 10 11  1  0  0  0  0
 10 14  2  0  0  0  0
 11 12  1  0  0  0  0
 12 13  2  0  0  0  0
 12 24  1  0  0  0  0
 13 14  1  0  0  0  0
 14 15  1  0  0  0  0
 15 16  2  0  0  0  0
 15 20  1  0  0  0  0
 16 17  1  0  0  0  0
 17 18  2  0  0  0  0
 18 19  1  0  0  0  0
 18 21  1  0  0  0  0
 19 20  2  0  0  0  0
 21 22  1  0  0  0  0
 21 23  1  0  0  0  0
 24 25  2  0  0  0  0
 24 30  1  0  0  0  0
 25 26  1  0  0  0  0
 26 27  2  0  0  0  0
 27 28  1  0  0  0  0
 27 29  1  0  0  0  0
 29 30  2  0  0  0  0
M  END
$$$$

 OpenBabel12191814062D

 40 44  0  0  0  0  0  0  0  0999 V2000
    0.0000    2.4750    0.0000 C   0  0  0  0  0  0  0  0  0  0  0  0
    0.7145    2.0625    0.0000 N   0  0  0  0  0  0  0  0  0  0  0  0
    1.4289    2.4750    0.0000 C   0  0  0  0  0  0  0  0  0  0  0  0
    0.7145    1.2375    0.0000 C   0  0  0  0  0  0  0  0  0  0  0  0
    1.4289    0.8250    0.0000 C   0  0  0  0  0  0  0  0  0  0  0  0
    1.4289   -0.0000    0.0000 C   0  0  0  0  0  0  0  0  0  0  0  0
    0.7145   -0.4125    0.0000 C   0  0  0  0  0  0  0  0  0  0  0  0
    0.0000   -0.0000    0.0000 C   0  0  0  0  0  0  0  0  0  0  0  0
    0.0000    0.8250    0.0000 C   0  0  0  0  0  0  0  0  0  0  0  0
    0.7145   -1.2375    0.0000 C   0  0  0  0  0  0  0  0  0  0  0  0
    1.3819   -1.7224    0.0000 N   0  0  0  0  0  0  0  0  0  0  0  0
    1.1270   -2.5070    0.0000 C   0  0  0  0  0  0  0  0  0  0  0  0
    1.6119   -3.1745    0.0000 C   0  0  0  0  0  0  0  0  0  0  0  0
    2.4324   -3.0882    0.0000 C   0  0  0  0  0  0  0  0  0  0  0  0
    2.9173   -3.7557    0.0000 C   0  0  0  0  0  0  0  0  0  0  0  0
    2.5817   -4.5094    0.0000 C   0  0  0  0  0  0  0  0  0  0  0  0
    1.7613   -4.5956    0.0000 C   0  0  0  0  0  0  0  0  0  0  0  0
    1.2763   -3.9282    0.0000 C   0  0  0  0  0  0  0  0  0  0  0  0
    3.0667   -5.1768    0.0000 C   0  0  0  0  0  0  0  0  0  0  0  0
    3.8871   -5.0906    0.0000 O   0  0  0  0  0  0  0  0  0  0  0  0
    2.7311   -5.9305    0.0000 O   0  0  0  0  0  0  0  0  0  0  0  0
    0.3020   -2.5070    0.0000 N   0  0  0  0  0  0  0  0  0  0  0  0
   -0.1830   -3.1745    0.0000 C   0  0  0  0  0  0  0  0  0  0  0  0
    0.1526   -3.9282    0.0000 C   0  0  0  0  0  0  0  0  0  0  0  0
   -0.3323   -4.5956    0.0000 C   0  0  0  0  0  0  0  0  0  0  0  0
    0.0032   -5.3493    0.0000 C   0  0  0  0  0  0  0  0  0  0  0  0
   -0.4817   -6.0167    0.0000 C   0  0  0  0  0  0  0  0  0  0  0  0
   -1.3022   -5.9305    0.0000 C   0  0  0  0  0  0  0  0  0  0  0  0
   -1.6377   -5.1768    0.0000 C   0  0  0  0  0  0  0  0  0  0  0  0
   -1.1528   -4.5094    0.0000 C   0  0  0  0  0  0  0  0  0  0  0  0
    0.0470   -1.7224    0.0000 C   0  0  0  0  0  0  0  0  0  0  0  0
   -0.7376   -1.4675    0.0000 C   0  0  0  0  0  0  0  0  0  0  0  0
   -1.3507   -2.0195    0.0000 C   0  0  0  0  0  0  0  0  0  0  0  0
   -2.1353   -1.7646    0.0000 C   0  0  0  0  0  0  0  0  0  0  0  0
   -2.3068   -0.9576    0.0000 C   0  0  0  0  0  0  0  0  0  0  0  0
   -1.6937   -0.4056    0.0000 C   0  0  0  0  0  0  0  0  0  0  0  0
   -0.9091   -0.6605    0.0000 C   0  0  0  0  0  0  0  0  0  0  0  0
   -3.0915   -0.7027    0.0000 N   0  0  0  0  0  0  0  0  0  0  0  0
   -3.2630    0.1043    0.0000 C   0  0  0  0  0  0  0  0  0  0  0  0
   -3.7045   -1.2547    0.0000 C   0  0  0  0  0  0  0  0  0  0  0  0
  1  2  1  0  0  0  0
  2  3  1  0  0  0  0
  2  4  1  0  0  0  0
  4  5  2  0  0  0  0
  4  9  1  0  0  0  0
  5  6  1  0  0  0  0
  6  7  2  0  0  0  0
  7  8  1  0  0  0  0
  7 10  1  0  0  0  0
  8  9  2  0  0  0  0
 10 11  1  0  0  0  0
 10 31  2  0  0  0  0
 11 12  2  0  0  0  0
 12 13  1  0  0  0  0
 12 22  1  0  0  0  0
 13 14  2  0  0  0  0
 13 18  1  0  0  0  0
 14 15  1  0  0  0  0
 15 16  2  0  0  0  0
 16 17  1  0  0  0  0
 16 19  1  0  0  0  0
 17 18  2  0  0  0  0
 19 20  1  0  0  0  0
 19 21  2  0  0  0  0
 22 23  1  0  0  0  0
 22 31  1  0  0  0  0
 23 24  1  0  0  0  0
 24 25  1  0  0  0  0
 25 26  2  0  0  0  0
 25 30  1  0  0  0  0
 26 27  1  0  0  0  0
 27 28  2  0  0  0  0
 28 29  1  0  0  0  0
 29 30  2  0  0  0  0
 31 32  1  0  0  0  0
 32 33  2  0  0  0  0
 32 37  1  0  0  0  0
 33 34  1  0  0  0  0
 34 35  2  0  0  0  0
 35 36  1  0  0  0  0
 35 38  1  0  0  0  0
 36 37  2  0  0  0  0
 38 39  1  0  0  0  0
 38 40  1  0  0  0  0
M  END
$$$$

 OpenBabel12191814062D

 38 42  0  0  0  0  0  0  0  0999 V2000
    0.0000    2.4750    0.0000 C   0  0  0  0  0  0  0  0  0  0  0  0
    0.7145    2.0625    0.0000 N   0  0  0  0  0  0  0  0  0  0  0  0
    1.4289    2.4750    0.0000 C   0  0  0  0  0  0  0  0  0  0  0  0
    0.7145    1.2375    0.0000 C   0  0  0  0  0  0  0  0  0  0  0  0
    1.4289    0.8250    0.0000 C   0  0  0  0  0  0  0  0  0  0  0  0
    1.4289   -0.0000    0.0000 C   0  0  0  0  0  0  0  0  0  0  0  0
    0.7145   -0.4125    0.0000 C   0  0  0  0  0  0  0  0  0  0  0  0
    0.0000   -0.0000    0.0000 C   0  0  0  0  0  0  0  0  0  0  0  0
    0.0000    0.8250    0.0000 C   0  0  0  0  0  0  0  0  0  0  0  0
    0.7145   -1.2375    0.0000 C   0  0  0  0  0  0  0  0  0  0  0  0
    1.3819   -1.7224    0.0000 N   0  0  0  0  0  0  0  0  0  0  0  0
    1.1270   -2.5070    0.0000 C   0  0  0  0  0  0  0  0  0  0  0  0
    1.6119   -3.1745    0.0000 C   0  0  0  0  0  0  0  0  0  0  0  0
    2.4324   -3.0882    0.0000 C   0  0  0  0  0  0  0  0  0  0  0  0
    2.9173   -3.7557    0.0000 C   0  0  0  0  0  0  0  0  0  0  0  0
    2.5817   -4.5094    0.0000 C   0  0  0  0  0  0  0  0  0  0  0  0
    3.0667   -5.1768    0.0000 O   0  0  0  0  0  0  0  0  0  0  0  0
    1.7613   -4.5956    0.0000 C   0  0  0  0  0  0  0  0  0  0  0  0
    1.2763   -3.9282    0.0000 C   0  0  0  0  0  0  0  0  0  0  0  0
    0.3020   -2.5070    0.0000 N   0  0  0  0  0  0  0  0  0  0  0  0
   -0.1830   -3.1745    0.0000 C   0  0  0  0  0  0  0  0  0  0  0  0
    0.1526   -3.9282    0.0000 C   0  0  0  0  0  0  0  0  0  0  0  0
   -0.3323   -4.5956    0.0000 C   0  0  0  0  0  0  0  0  0  0  0  0
    0.0032   -5.3493    0.0000 C   0  0  0  0  0  0  0  0  0  0  0  0
   -0.4817   -6.0167    0.0000 C   0  0  0  0  0  0  0  0  0  0  0  0
   -1.3022   -5.9305    0.0000 C   0  0  0  0  0  0  0  0  0  0  0  0
   -1.6377   -5.1768    0.0000 C   0  0  0  0  0  0  0  0  0  0  0  0
   -1.1528   -4.5094    0.0000 C   0  0  0  0  0  0  0  0  0  0  0  0
    0.0470   -1.7224    0.0000 C   0  0  0  0  0  0  0  0  0  0  0  0
   -0.7376   -1.4675    0.0000 C   0  0  0  0  0  0  0  0  0  0  0  0
   -1.3507   -2.0195    0.0000 C   0  0  0  0  0  0  0  0  0  0  0  0
   -2.1353   -1.7646    0.0000 C   0  0  0  0  0  0  0  0  0  0  0  0
   -2.3068   -0.9576    0.0000 C   0  0  0  0  0  0  0  0  0  0  0  0
   -1.6937   -0.4056    0.0000 C   0  0  0  0  0  0  0  0  0  0  0  0
   -0.9091   -0.6605    0.0000 C   0  0  0  0  0  0  0  0  0  0  0  0
   -3.0915   -0.7027    0.0000 N   0  0  0  0  0  0  0  0  0  0  0  0
   -3.2630    0.1043    0.0000 C   0  0  0  0  0  0  0  0  0  0  0  0
   -3.7045   -1.2547    0.0000 C   0  0  0  0  0  0  0  0  0  0  0  0
  1  2  1  0  0  0  0
  2  3  1  0  0  0  0
  2  4  1  0  0  0  0
  4  5  2  0  0  0  0
  4  9  1  0  0  0  0
  5  6  1  0  0  0  0
  6  7  2  0  0  0  0
  7  8  1  0  0  0  0
  7 10  1  0  0  0  0
  8  9  2  0  0  0  0
 10 11  1  0  0  0  0
 10 29  2  0  0  0  0
 11 12  2  0  0  0  0
 12 13  1  0  0  0  0
 12 20  1  0  0  0  0
 13 14  2  0  0  0  0
 13 19  1  0  0  0  0
 14 15  1  0  0  0  0
 15 16  2  0  0  0  0
 16 17  1  0  0  0  0
 16 18  1  0  0  0  0
 18 19  2  0  0  0  0
 20 21  1  0  0  0  0
 20 29  1  0  0  0  0
 21 22  1  0  0  0  0
 22 23  1  0  0  0  0
 23 24  2  0  0  0  0
 23 28  1  0  0  0  0
 24 25  1  0  0  0  0
 25 26  2  0  0  0  0
 26 27  1  0  0  0  0
 27 28  2  0  0  0  0
 29 30  1  0  0  0  0
 30 31  2  0  0  0  0
 30 35  1  0  0  0  0
 31 32  1  0  0  0  0
 32 33  2  0  0  0  0
 33 34  1  0  0  0  0
 33 36  1  0  0  0  0
 34 35  2  0  0  0  0
 36 37  1  0  0  0  0
 36 38  1  0  0  0  0
M  END
$$$$

 OpenBabel12191814062D

 36 41  0  0  0  0  0  0  0  0999 V2000
    6.4393    3.3452    0.0000 C   0  0  0  0  0  0  0  0  0  0  0  0
    6.4650    2.5206    0.0000 N   0  0  0  0  0  0  0  0  0  0  0  0
    7.1920    2.1307    0.0000 C   0  0  0  0  0  0  0  0  0  0  0  0
    5.7638    2.0860    0.0000 C   0  0  3  0  0  0  0  0  0  0  0  0
    5.7896    1.2614    0.0000 C   0  0  0  0  0  0  0  0  0  0  0  0
    5.0883    0.8268    0.0000 C   0  0  0  0  0  0  0  0  0  0  0  0
    4.3613    1.2168    0.0000 C   0  0  3  0  0  0  0  0  0  0  0  0
    4.3355    2.0414    0.0000 C   0  0  0  0  0  0  0  0  0  0  0  0
    5.0368    2.4760    0.0000 C   0  0  0  0  0  0  0  0  0  0  0  0
    3.6601    0.7822    0.0000 N   0  0  0  0  0  0  0  0  0  0  0  0
    2.8963    1.0941    0.0000 N   0  0  0  0  0  0  0  0  0  0  0  0
    2.3637    0.4640    0.0000 C   0  0  0  0  0  0  0  0  0  0  0  0
    2.7983   -0.2372    0.0000 C   0  0  0  0  0  0  0  0  0  0  0  0
    2.4083   -0.9642    0.0000 C   0  0  0  0  0  0  0  0  0  0  0  0
    1.5837   -0.9900    0.0000 N   0  0  0  0  0  0  0  0  0  0  0  0
    1.1937   -1.7170    0.0000 C   0  0  0  0  0  0  0  0  0  0  0  0
    1.2195   -2.5416    0.0000 C   0  0  0  0  0  0  0  0  0  0  0  0
    0.4925   -2.1516    0.0000 C   0  0  0  0  0  0  0  0  0  0  0  0
    1.1491   -0.2887    0.0000 C   0  0  0  0  0  0  0  0  0  0  0  0
    0.3245   -0.3145    0.0000 C   0  0  0  0  0  0  0  0  0  0  0  0
   -0.0655   -1.0415    0.0000 F   0  0  0  0  0  0  0  0  0  0  0  0
   -0.1101    0.3867    0.0000 C   0  0  0  0  0  0  0  0  0  0  0  0
    0.2799    1.1137    0.0000 C   0  0  0  0  0  0  0  0  0  0  0  0
   -0.1547    1.8150    0.0000 F   0  0  0  0  0  0  0  0  0  0  0  0
    1.1045    1.1395    0.0000 C   0  0  0  0  0  0  0  0  0  0  0  0
    1.5391    0.4383    0.0000 C   0  0  0  0  0  0  0  0  0  0  0  0
   -0.9347    0.3610    0.0000 C   0  0  0  0  0  0  0  0  0  0  0  0
   -1.3247   -0.3660    0.0000 C   0  0  0  0  0  0  0  0  0  0  0  0
   -2.1493   -0.3918    0.0000 C   0  0  0  0  0  0  0  0  0  0  0  0
   -2.5393   -1.1188    0.0000 C   0  0  0  0  0  0  0  0  0  0  0  0
   -2.5839    0.3094    0.0000 N   0  0  0  0  0  0  0  0  0  0  0  0
   -2.1939    1.0365    0.0000 C   0  0  0  0  0  0  0  0  0  0  0  0
   -2.6285    1.7377    0.0000 C   0  0  0  0  0  0  0  0  0  0  0  0
   -1.3693    1.0622    0.0000 C   0  0  0  0  0  0  0  0  0  0  0  0
    3.5995   -0.0406    0.0000 C   0  0  0  0  0  0  0  0  0  0  0  0
    4.2295   -0.5732    0.0000 O   0  0  0  0  0  0  0  0  0  0  0  0
  1  2  1  0  0  0  0
  2  3  1  0  0  0  0
  2  4  1  0  0  0  0
  4  5  1  0  0  0  0
  4  9  1  0  0  0  0
  5  6  1  0  0  0  0
  6  7  1  0  0  0  0
  7  8  1  0  0  0  0
  7 10  1  0  0  0  0
  8  9  1  0  0  0  0
 10 11  1  0  0  0  0
 10 35  1  0  0  0  0
 11 12  2  0  0  0  0
 12 13  1  0  0  0  0
 12 26  1  0  0  0  0
 13 14  2  0  0  0  0
 13 35  1  0  0  0  0
 14 15  1  0  0  0  0
 15 16  1  0  0  0  0
 15 19  1  0  0  0  0
 16 17  1  0  0  0  0
 16 18  1  0  0  0  0
 17 18  1  0  0  0  0
 19 20  2  0  0  0  0
 19 26  1  0  0  0  0
 20 21  1  0  0  0  0
 20 22  1  0  0  0  0
 22 23  2  0  0  0  0
 22 27  1  0  0  0  0
 23 24  1  0  0  0  0
 23 25  1  0  0  0  0
 25 26  2  0  0  0  0
 27 28  2  0  0  0  0
 27 34  1  0  0  0  0
 28 29  1  0  0  0  0
 29 30  1  0  0  0  0
 29 31  2  0  0  0  0
 31 32  1  0  0  0  0
 32 33  1  0  0  0  0
 32 34  2  0  0  0  0
 35 36  2  0  0  0  0
M  END
$$$$

 OpenBabel12191814062D

 37 40  0  0  0  0  0  0  0  0999 V2000
    5.7158   -4.9500    0.0000 C   0  0  0  0  0  0  0  0  0  0  0  0
    6.4302   -5.3625    0.0000 N   0  0  0  0  0  0  0  0  0  0  0  0
    7.1447   -4.9500    0.0000 C   0  0  0  0  0  0  0  0  0  0  0  0
    6.4302   -6.1875    0.0000 C   0  0  0  0  0  0  0  0  0  0  0  0
    7.1447   -6.6000    0.0000 C   0  0  0  0  0  0  0  0  0  0  0  0
    7.1447   -7.4250    0.0000 C   0  0  0  0  0  0  0  0  0  0  0  0
    6.4302   -7.8375    0.0000 C   0  0  0  0  0  0  0  0  0  0  0  0
    6.4302   -8.6625    0.0000 C   0  0  0  0  0  0  0  0  0  0  0  0
    7.1447   -9.0750    0.0000 C   0  0  0  0  0  0  0  0  0  0  0  0
    7.1447   -9.9000    0.0000 C   0  0  0  0  0  0  0  0  0  0  0  0
    6.4302  -10.3125    0.0000 O   0  0  0  0  0  0  0  0  0  0  0  0
    7.8592  -10.3125    0.0000 C   0  0  0  0  0  0  0  0  0  0  0  0
    8.5737   -9.9000    0.0000 C   0  0  0  0  0  0  0  0  0  0  0  0
    9.2881  -10.3125    0.0000 C   0  0  0  0  0  0  0  0  0  0  0  0
    9.2881  -11.1375    0.0000 C   0  0  0  0  0  0  0  0  0  0  0  0
    8.5737  -11.5500    0.0000 C   0  0  0  0  0  0  0  0  0  0  0  0
    7.8592  -11.1375    0.0000 C   0  0  0  0  0  0  0  0  0  0  0  0
    7.1447  -11.5500    0.0000 O   0  0  0  0  0  0  0  0  0  0  0  0
    7.1447  -12.3750    0.0000 C   0  0  0  0  0  0  0  0  0  0  0  0
    6.4302  -12.7875    0.0000 C   0  0  3  0  0  0  0  0  0  0  0  0
    5.7158  -12.3750    0.0000 O   0  0  0  0  0  0  0  0  0  0  0  0
    6.4302  -13.6125    0.0000 C   0  0  0  0  0  0  0  0  0  0  0  0
    5.7158  -14.0250    0.0000 N   0  0  0  0  0  0  0  0  0  0  0  0
    5.7158  -14.8500    0.0000 C   0  0  0  0  0  0  0  0  0  0  0  0
    5.0013  -15.2625    0.0000 C   0  0  0  0  0  0  0  0  0  0  0  0
    4.2868  -14.8500    0.0000 N   0  0  0  0  0  0  0  0  0  0  0  0
    4.2868  -14.0250    0.0000 C   0  0  0  0  0  0  0  0  0  0  0  0
    5.0013  -13.6125    0.0000 C   0  0  0  0  0  0  0  0  0  0  0  0
    3.5724  -15.2625    0.0000 C   0  0  0  0  0  0  0  0  0  0  0  0
    3.5724  -16.0875    0.0000 C   0  0  0  0  0  0  0  0  0  0  0  0
    2.8579  -16.5000    0.0000 C   0  0  0  0  0  0  0  0  0  0  0  0
    2.1434  -16.0875    0.0000 C   0  0  0  0  0  0  0  0  0  0  0  0
    2.1434  -15.2625    0.0000 C   0  0  0  0  0  0  0  0  0  0  0  0
    2.8579  -14.8500    0.0000 C   0  0  0  0  0  0  0  0  0  0  0  0
    2.8579  -14.0250    0.0000 C   0  0  0  0  0  0  0  0  0  0  0  0
    5.7158   -7.4250    0.0000 C   0  0  0  0  0  0  0  0  0  0  0  0
    5.7158   -6.6000    0.0000 C   0  0  0  0  0  0  0  0  0  0  0  0
  1  2  1  0  0  0  0
  2  3  1  0  0  0  0
  2  4  1  0  0  0  0
  4  5  2  0  0  0  0
  4 37  1  0  0  0  0
  5  6  1  0  0  0  0
  6  7  2  0  0  0  0
  7  8  1  0  0  0  0
  7 36  1  0  0  0  0
  8  9  1  0  0  0  0
  9 10  1  0  0  0  0
 10 11  2  0  0  0  0
 10 12  1  0  0  0  0
 12 13  2  0  0  0  0
 12 17  1  0  0  0  0
 13 14  1  0  0  0  0
 14 15  2  0  0  0  0
 15 16  1  0  0  0  0
 16 17  2  0  0  0  0
 17 18  1  0  0  0  0
 18 19  1  0  0  0  0
 19 20  1  0  0  0  0
 20 21  1  0  0  0  0
 20 22  1  0  0  0  0
 22 23  1  0  0  0  0
 23 24  1  0  0  0  0
 23 28  1  0  0  0  0
 24 25  1  0  0  0  0
 25 26  1  0  0  0  0
 26 27  1  0  0  0  0
 26 29  1  0  0  0  0
 27 28  1  0  0  0  0
 29 30  2  0  0  0  0
 29 34  1  0  0  0  0
 30 31  1  0  0  0  0
 31 32  2  0  0  0  0
 32 33  1  0  0  0  0
 33 34  2  0  0  0  0
 34 35  1  0  0  0  0
 36 37  2  0  0  0  0
M  END
$$$$

 OpenBabel12191814062D

 35 39  0  0  0  0  0  0  0  0999 V2000
    1.6603    7.3445    0.0000 C   0  0  0  0  0  0  0  0  0  0  0  0
    1.6603    6.5195    0.0000 N   0  0  0  0  0  0  0  0  0  0  0  0
    0.9458    6.1070    0.0000 C   0  0  0  0  0  0  0  0  0  0  0  0
    2.3747    6.1070    0.0000 C   0  0  0  0  0  0  0  0  0  0  0  0
    3.0892    6.5195    0.0000 N   0  0  0  0  0  0  0  0  0  0  0  0
    3.8037    6.1070    0.0000 C   0  0  0  0  0  0  0  0  0  0  0  0
    3.8037    5.2820    0.0000 N   0  0  0  0  0  0  0  0  0  0  0  0
    3.0892    4.8695    0.0000 C   0  0  0  0  0  0  0  0  0  0  0  0
    2.3747    5.2820    0.0000 N   0  0  0  0  0  0  0  0  0  0  0  0
    3.0892    4.0445    0.0000 N   0  0  0  0  0  0  0  0  0  0  0  0
    3.8037    3.6320    0.0000 C   0  0  0  0  0  0  0  0  0  0  0  0
    3.8037    2.8070    0.0000 C   0  0  0  0  0  0  0  0  0  0  0  0
    3.0892    2.3945    0.0000 C   0  0  0  0  0  0  0  0  0  0  0  0
    2.3747    2.8070    0.0000 C   0  0  0  0  0  0  0  0  0  0  0  0
    2.3747    3.6320    0.0000 C   0  0  0  0  0  0  0  0  0  0  0  0
    3.0892    1.5695    0.0000 N   0  0  0  0  0  0  0  0  0  0  0  0
    3.8037    1.1570    0.0000 C   0  0  0  0  0  0  0  0  0  0  0  0
    3.8037    0.3320    0.0000 C   0  0  0  0  0  0  0  0  0  0  0  0
    4.5470   -0.0260    0.0000 C   0  0  0  0  0  0  0  0  0  0  0  0
    5.1517    0.5352    0.0000 C   0  0  0  0  0  0  0  0  0  0  0  0
    5.9401    0.2920    0.0000 C   0  0  0  0  0  0  0  0  0  0  0  0
    6.1237   -0.5123    0.0000 C   0  0  0  0  0  0  0  0  0  0  0  0
    5.5189   -1.0735    0.0000 C   0  0  0  0  0  0  0  0  0  0  0  0
    4.7305   -0.8303    0.0000 C   0  0  0  0  0  0  0  0  0  0  0  0
    4.2162   -1.4753    0.0000 C   0  0  0  0  0  0  0  0  0  0  0  0
    3.3912   -1.4753    0.0000 C   0  0  0  0  0  0  0  0  0  0  0  0
    2.8768   -0.8303    0.0000 C   0  0  0  0  0  0  0  0  0  0  0  0
    2.0884   -1.0735    0.0000 C   0  0  0  0  0  0  0  0  0  0  0  0
    1.4837   -0.5123    0.0000 C   0  0  0  0  0  0  0  0  0  0  0  0
    1.6673    0.2920    0.0000 C   0  0  0  0  0  0  0  0  0  0  0  0
    2.4556    0.5352    0.0000 C   0  0  0  0  0  0  0  0  0  0  0  0
    3.0604   -0.0260    0.0000 C   0  0  0  0  0  0  0  0  0  0  0  0
    4.5181    6.5195    0.0000 N   0  0  0  0  0  0  0  0  0  0  0  0
    5.2326    6.1070    0.0000 C   0  0  0  0  0  0  0  0  0  0  0  0
    4.5181    7.3445    0.0000 C   0  0  0  0  0  0  0  0  0  0  0  0
  1  2  1  0  0  0  0
  2  3  1  0  0  0  0
  2  4  1  0  0  0  0
  4  5  2  0  0  0  0
  4  9  1  0  0  0  0
  5  6  1  0  0  0  0
  6  7  2  0  0  0  0
  6 33  1  0  0  0  0
  7  8  1  0  0  0  0
  8  9  2  0  0  0  0
  8 10  1  0  0  0  0
 10 11  1  0  0  0  0
 10 15  1  0  0  0  0
 11 12  1  0  0  0  0
 12 13  1  0  0  0  0
 13 14  1  0  0  0  0
 13 16  1  0  0  0  0
 14 15  1  0  0  0  0
 16 17  1  0  0  0  0
 17 18  1  0  0  0  0
 18 19  1  0  0  0  0
 18 32  1  0  0  0  0
 19 20  2  0  0  0  0
 19 24  1  0  0  0  0
 20 21  1  0  0  0  0
 21 22  2  0  0  0  0
 22 23  1  0  0  0  0
 23 24  2  0  0  0  0
 24 25  1  0  0  0  0
 25 26  1  0  0  0  0
 26 27  1  0  0  0  0
 27 28  2  0  0  0  0
 27 32  1  0  0  0  0
 28 29  1  0  0  0  0
 29 30  2  0  0  0  0
 30 31  1  0  0  0  0
 31 32  2  0  0  0  0
 33 34  1  0  0  0  0
 33 35  1  0  0  0  0
M  END
$$$$

 OpenBabel12191814062D

 30 33  0  0  0  0  0  0  0  0999 V2000
   -0.7145   -0.4125    0.0000 C   0  0  0  0  0  0  0  0  0  0  0  0
    0.0000    0.0000    0.0000 N   0  0  0  0  0  0  0  0  0  0  0  0
    0.0000    0.8250    0.0000 C   0  0  0  0  0  0  0  0  0  0  0  0
    0.7145   -0.4125    0.0000 C   0  0  0  0  0  0  0  0  0  0  0  0
    1.4289    0.0000    0.0000 N   0  0  0  0  0  0  0  0  0  0  0  0
    2.1434   -0.4125    0.0000 C   0  0  0  0  0  0  0  0  0  0  0  0
    2.8579    0.0000    0.0000 N   0  0  0  0  0  0  0  0  0  0  0  0
    3.5724   -0.4125    0.0000 C   0  0  0  0  0  0  0  0  0  0  0  0
    3.5724   -1.2375    0.0000 N   0  0  0  0  0  0  0  0  0  0  0  0
    2.8579   -1.6500    0.0000 C   0  0  0  0  0  0  0  0  0  0  0  0
    2.8579   -2.4750    0.0000 N   0  0  0  0  0  0  0  0  0  0  0  0
    2.1434   -2.8875    0.0000 C   0  0  0  0  0  0  0  0  0  0  0  0
    3.5724   -2.8875    0.0000 C   0  0  0  0  0  0  0  0  0  0  0  0
    2.1434   -1.2375    0.0000 C   0  0  0  0  0  0  0  0  0  0  0  0
    1.4289   -1.6500    0.0000 N   0  0  0  0  0  0  0  0  0  0  0  0
    0.7145   -1.2375    0.0000 C   0  0  0  0  0  0  0  0  0  0  0  0
    0.0000   -1.6500    0.0000 S   0  0  0  0  0  0  0  0  0  0  0  0
   -0.7145   -1.2375    0.0000 C   0  0  0  0  0  0  0  0  0  0  0  0
   -1.4289   -1.6500    0.0000 C   0  0  0  0  0  0  0  0  0  0  0  0
   -1.4289   -2.4750    0.0000 C   0  0  0  0  0  0  0  0  0  0  0  0
   -2.1434   -2.8875    0.0000 C   0  0  0  0  0  0  0  0  0  0  0  0
   -2.8579   -2.4750    0.0000 C   0  0  0  0  0  0  0  0  0  0  0  0
   -2.8579   -1.6500    0.0000 C   0  0  0  0  0  0  0  0  0  0  0  0
   -2.1434   -1.2375    0.0000 C   0  0  0  0  0  0  0  0  0  0  0  0
    4.2868   -0.0000    0.0000 N   0  0  0  0  0  0  0  0  0  0  0  0
    4.2868    0.8250    0.0000 C   0  0  0  0  0  0  0  0  0  0  0  0
    5.0013    1.2375    0.0000 C   0  0  0  0  0  0  0  0  0  0  0  0
    5.7158    0.8250    0.0000 N   0  0  0  0  0  0  0  0  0  0  0  0
    5.7158   -0.0000    0.0000 C   0  0  0  0  0  0  0  0  0  0  0  0
    5.0013   -0.4125    0.0000 C   0  0  0  0  0  0  0  0  0  0  0  0
  1  2  1  0  0  0  0
  2  3  1  0  0  0  0
  2  4  1  0  0  0  0
  4  5  2  0  0  0  0
  4 16  1  0  0  0  0
  5  6  1  0  0  0  0
  6  7  2  0  0  0  0
  6 14  1  0  0  0  0
  7  8  1  0  0  0  0
  8  9  2  0  0  0  0
  8 25  1  0  0  0  0
  9 10  1  0  0  0  0
 10 11  1  0  0  0  0
 10 14  2  0  0  0  0
 11 12  1  0  0  0  0
 11 13  1  0  0  0  0
 14 15  1  0  0  0  0
 15 16  2  0  0  0  0
 16 17  1  0  0  0  0
 17 18  1  0  0  0  0
 18 19  1  0  0  0  0
 19 20  2  0  0  0  0
 19 24  1  0  0  0  0
 20 21  1  0  0  0  0
 21 22  2  0  0  0  0
 22 23  1  0  0  0  0
 23 24  2  0  0  0  0
 25 26  1  0  0  0  0
 25 30  1  0  0  0  0
 26 27  1  0  0  0  0
 27 28  1  0  0  0  0
 28 29  1  0  0  0  0
 29 30  1  0  0  0  0
M  END
$$$$

 OpenBabel12191814062D

 24 25  0  0  0  0  0  0  0  0999 V2000
   -0.0000   -4.9500    0.0000 C   0  0  0  0  0  0  0  0  0  0  0  0
    0.7145   -5.3625    0.0000 N   0  0  0  0  0  0  0  0  0  0  0  0
    0.7145   -6.1875    0.0000 C   0  0  0  0  0  0  0  0  0  0  0  0
    1.4289   -4.9500    0.0000 C   0  0  0  0  0  0  0  0  0  0  0  0
    2.1434   -5.3625    0.0000 C   0  0  3  0  0  0  0  0  0  0  0  0
    2.1434   -6.1875    0.0000 O   0  0  0  0  0  0  0  0  0  0  0  0
    2.8579   -4.9500    0.0000 C   0  0  0  0  0  0  0  0  0  0  0  0
    3.5724   -5.3625    0.0000 O   0  0  0  0  0  0  0  0  0  0  0  0
    4.2868   -4.9500    0.0000 C   0  0  0  0  0  0  0  0  0  0  0  0
    4.2868   -4.1250    0.0000 C   0  0  0  0  0  0  0  0  0  0  0  0
    5.0013   -3.7125    0.0000 C   0  0  0  0  0  0  0  0  0  0  0  0
    5.7158   -4.1250    0.0000 C   0  0  0  0  0  0  0  0  0  0  0  0
    5.7158   -4.9500    0.0000 C   0  0  0  0  0  0  0  0  0  0  0  0
    5.0013   -5.3625    0.0000 C   0  0  0  0  0  0  0  0  0  0  0  0
    5.0013   -6.1875    0.0000 C   0  0  0  0  0  0  0  0  0  0  0  0
    5.7158   -6.6000    0.0000 O   0  0  0  0  0  0  0  0  0  0  0  0
    4.2868   -6.6000    0.0000 C   0  0  0  0  0  0  0  0  0  0  0  0
    4.2868   -7.4250    0.0000 C   0  0  0  0  0  0  0  0  0  0  0  0
    5.0013   -7.8375    0.0000 C   0  0  0  0  0  0  0  0  0  0  0  0
    5.7158   -7.4250    0.0000 C   0  0  0  0  0  0  0  0  0  0  0  0
    6.4302   -7.8375    0.0000 C   0  0  0  0  0  0  0  0  0  0  0  0
    6.4302   -8.6625    0.0000 C   0  0  0  0  0  0  0  0  0  0  0  0
    5.7158   -9.0750    0.0000 C   0  0  0  0  0  0  0  0  0  0  0  0
    5.0013   -8.6625    0.0000 C   0  0  0  0  0  0  0  0  0  0  0  0
  1  2  1  0  0  0  0
  2  3  1  0  0  0  0
  2  4  1  0  0  0  0
  4  5  1  0  0  0  0
  5  6  1  0  0  0  0
  5  7  1  0  0  0  0
  7  8  1  0  0  0  0
  8  9  1  0  0  0  0
  9 10  2  0  0  0  0
  9 14  1  0  0  0  0
 10 11  1  0  0  0  0
 11 12  2  0  0  0  0
 12 13  1  0  0  0  0
 13 14  2  0  0  0  0
 14 15  1  0  0  0  0
 15 16  2  0  0  0  0
 15 17  1  0  0  0  0
 17 18  1  0  0  0  0
 18 19  1  0  0  0  0
 19 20  2  0  0  0  0
 19 24  1  0  0  0  0
 20 21  1  0  0  0  0
 21 22  2  0  0  0  0
 22 23  1  0  0  0  0
 23 24  2  0  0  0  0
M  END
$$$$

 OpenBabel12191814062D

 21 23  0  0  0  0  0  0  0  0999 V2000
    5.2326    3.6320    0.0000 C   0  0  0  0  0  0  0  0  0  0  0  0
    5.2326    2.8070    0.0000 N   0  0  0  0  0  0  0  0  0  0  0  0
    5.9471    2.3945    0.0000 C   0  0  0  0  0  0  0  0  0  0  0  0
    4.5181    2.3945    0.0000 C   0  0  0  0  0  0  0  0  0  0  0  0
    4.5181    1.5695    0.0000 C   0  0  0  0  0  0  0  0  0  0  0  0
    3.8037    1.1570    0.0000 C   0  0  0  0  0  0  0  0  0  0  0  0
    3.8037    0.3320    0.0000 C   0  0  0  0  0  0  0  0  0  0  0  0
    4.5470   -0.0260    0.0000 C   0  0  0  0  0  0  0  0  0  0  0  0
    5.1517    0.5352    0.0000 C   0  0  0  0  0  0  0  0  0  0  0  0
    5.9401    0.2920    0.0000 C   0  0  0  0  0  0  0  0  0  0  0  0
    6.1237   -0.5123    0.0000 C   0  0  0  0  0  0  0  0  0  0  0  0
    5.5189   -1.0735    0.0000 C   0  0  0  0  0  0  0  0  0  0  0  0
    4.7305   -0.8303    0.0000 C   0  0  0  0  0  0  0  0  0  0  0  0
    4.2162   -1.4753    0.0000 C   0  0  0  0  0  0  0  0  0  0  0  0
    3.3912   -1.4753    0.0000 O   0  0  0  0  0  0  0  0  0  0  0  0
    2.8768   -0.8303    0.0000 C   0  0  0  0  0  0  0  0  0  0  0  0
    2.0884   -1.0735    0.0000 C   0  0  0  0  0  0  0  0  0  0  0  0
    1.4837   -0.5123    0.0000 C   0  0  0  0  0  0  0  0  0  0  0  0
    1.6673    0.2920    0.0000 C   0  0  0  0  0  0  0  0  0  0  0  0
    2.4556    0.5352    0.0000 C   0  0  0  0  0  0  0  0  0  0  0  0
    3.0604   -0.0260    0.0000 C   0  0  0  0  0  0  0  0  0  0  0  0
  1  2  1  0  0  0  0
  2  3  1  0  0  0  0
  2  4  1  0  0  0  0
  4  5  1  0  0  0  0
  5  6  1  0  0  0  0
  6  7  2  0  0  0  0
  7  8  1  0  0  0  0
  7 21  1  0  0  0  0
  8  9  2  0  0  0  0
  8 13  1  0  0  0  0
  9 10  1  0  0  0  0
 10 11  2  0  0  0  0
 11 12  1  0  0  0  0
 12 13  2  0  0  0  0
 13 14  1  0  0  0  0
 14 15  1  0  0  0  0
 15 16  1  0  0  0  0
 16 17  2  0  0  0  0
 16 21  1  0  0  0  0
 17 18  1  0  0  0  0
 18 19  2  0  0  0  0
 19 20  1  0  0  0  0
 20 21  2  0  0  0  0
M  END
$$$$

 OpenBabel12191814062D

 21 23  0  0  0  0  0  0  0  0999 V2000
    3.5724    4.5375    0.0000 C   0  0  0  0  0  0  0  0  0  0  0  0
    3.5724    3.7125    0.0000 N   0  0  0  0  0  0  0  0  0  0  0  0
    4.2868    3.3000    0.0000 C   0  0  0  0  0  0  0  0  0  0  0  0
    2.8579    3.3000    0.0000 C   0  0  0  0  0  0  0  0  0  0  0  0
    2.8579    2.4750    0.0000 C   0  0  0  0  0  0  0  0  0  0  0  0
    2.1434    2.0625    0.0000 C   0  0  0  0  0  0  0  0  0  0  0  0
    2.1434    1.2375    0.0000 C   0  0  0  0  0  0  0  0  0  0  0  0
    2.8579    0.8250    0.0000 C   0  0  0  0  0  0  0  0  0  0  0  0
    3.5724    1.2375    0.0000 C   0  0  0  0  0  0  0  0  0  0  0  0
    4.2868    0.8250    0.0000 C   0  0  0  0  0  0  0  0  0  0  0  0
    4.2868   -0.0000    0.0000 C   0  0  0  0  0  0  0  0  0  0  0  0
    3.5724   -0.4125    0.0000 C   0  0  0  0  0  0  0  0  0  0  0  0
    2.8579    0.0000    0.0000 C   0  0  0  0  0  0  0  0  0  0  0  0
    2.1434   -0.4125    0.0000 S   0  0  0  0  0  0  0  0  0  0  0  0
    1.4289    0.0000    0.0000 C   0  0  0  0  0  0  0  0  0  0  0  0
    0.7145   -0.4125    0.0000 C   0  0  0  0  0  0  0  0  0  0  0  0
    0.0000    0.0000    0.0000 C   0  0  0  0  0  0  0  0  0  0  0  0
    0.0000    0.8250    0.0000 C   0  0  0  0  0  0  0  0  0  0  0  0
   -0.7145    1.2375    0.0000 Cl  0  0  0  0  0  0  0  0  0  0  0  0
    0.7145    1.2375    0.0000 C   0  0  0  0  0  0  0  0  0  0  0  0
    1.4289    0.8250    0.0000 C   0  0  0  0  0  0  0  0  0  0  0  0
  1  2  1  0  0  0  0
  2  3  1  0  0  0  0
  2  4  1  0  0  0  0
  4  5  1  0  0  0  0
  5  6  1  0  0  0  0
  6  7  2  0  0  0  0
  7  8  1  0  0  0  0
  7 21  1  0  0  0  0
  8  9  2  0  0  0  0
  8 13  1  0  0  0  0
  9 10  1  0  0  0  0
 10 11  2  0  0  0  0
 11 12  1  0  0  0  0
 12 13  2  0  0  0  0
 13 14  1  0  0  0  0
 14 15  1  0  0  0  0
 15 16  2  0  0  0  0
 15 21  1  0  0  0  0
 16 17  1  0  0  0  0
 17 18  2  0  0  0  0
 18 19  1  0  0  0  0
 18 20  1  0  0  0  0
 20 21  2  0  0  0  0
M  END
$$$$

 OpenBabel12191814062D

 21 23  0  0  0  0  0  0  0  0999 V2000
    2.3747    3.6320    0.0000 C   0  0  0  0  0  0  0  0  0  0  0  0
    2.3747    2.8070    0.0000 N   0  0  0  0  0  0  0  0  0  0  0  0
    1.6603    2.3945    0.0000 C   0  0  0  0  0  0  0  0  0  0  0  0
    3.0892    2.3945    0.0000 C   0  0  0  0  0  0  0  0  0  0  0  0
    3.0892    1.5695    0.0000 C   0  0  0  0  0  0  0  0  0  0  0  0
    3.8037    1.1570    0.0000 C   0  0  0  0  0  0  0  0  0  0  0  0
    3.8037    0.3320    0.0000 C   0  0  0  0  0  0  0  0  0  0  0  0
    4.5470   -0.0260    0.0000 C   0  0  0  0  0  0  0  0  0  0  0  0
    5.1517    0.5352    0.0000 C   0  0  0  0  0  0  0  0  0  0  0  0
    5.9401    0.2920    0.0000 C   0  0  0  0  0  0  0  0  0  0  0  0
    6.1237   -0.5123    0.0000 C   0  0  0  0  0  0  0  0  0  0  0  0
    5.5189   -1.0735    0.0000 C   0  0  0  0  0  0  0  0  0  0  0  0
    4.7305   -0.8303    0.0000 C   0  0  0  0  0  0  0  0  0  0  0  0
    4.2162   -1.4753    0.0000 C   0  0  0  0  0  0  0  0  0  0  0  0
    3.3912   -1.4753    0.0000 O   0  0  0  0  0  0  0  0  0  0  0  0
    2.8768   -0.8303    0.0000 C   0  0  0  0  0  0  0  0  0  0  0  0
    2.0884   -1.0735    0.0000 C   0  0  0  0  0  0  0  0  0  0  0  0
    1.4837   -0.5123    0.0000 C   0  0  0  0  0  0  0  0  0  0  0  0
    1.6673    0.2920    0.0000 C   0  0  0  0  0  0  0  0  0  0  0  0
    2.4556    0.5352    0.0000 C   0  0  0  0  0  0  0  0  0  0  0  0
    3.0604   -0.0260    0.0000 C   0  0  0  0  0  0  0  0  0  0  0  0
  1  2  1  0  0  0  0
  2  3  1  0  0  0  0
  2  4  1  0  0  0  0
  4  5  1  0  0  0  0
  5  6  1  0  0  0  0
  6  7  2  0  0  0  0
  7  8  1  0  0  0  0
  7 21  1  0  0  0  0
  8  9  2  0  0  0  0
  8 13  1  0  0  0  0
  9 10  1  0  0  0  0
 10 11  2  0  0  0  0
 11 12  1  0  0  0  0
 12 13  2  0  0  0  0
 13 14  1  0  0  0  0
 14 15  1  0  0  0  0
 15 16  1  0  0  0  0
 16 17  2  0  0  0  0
 16 21  1  0  0  0  0
 17 18  1  0  0  0  0
 18 19  2  0  0  0  0
 19 20  1  0  0  0  0
 20 21  2  0  0  0  0
M  END
$$$$

 OpenBabel12191814062D

 21 23  0  0  0  0  0  0  0  0999 V2000
    0.7145    4.5375    0.0000 C   0  0  0  0  0  0  0  0  0  0  0  0
    0.7145    3.7125    0.0000 N   0  0  0  0  0  0  0  0  0  0  0  0
   -0.0000    3.3000    0.0000 C   0  0  0  0  0  0  0  0  0  0  0  0
    1.4289    3.3000    0.0000 C   0  0  0  0  0  0  0  0  0  0  0  0
    1.4289    2.4750    0.0000 C   0  0  0  0  0  0  0  0  0  0  0  0
    2.1434    2.0625    0.0000 C   0  0  0  0  0  0  0  0  0  0  0  0
    2.1434    1.2375    0.0000 C   0  0  0  0  0  0  0  0  0  0  0  0
    2.8579    0.8250    0.0000 C   0  0  0  0  0  0  0  0  0  0  0  0
    3.5724    1.2375    0.0000 C   0  0  0  0  0  0  0  0  0  0  0  0
    4.2868    0.8250    0.0000 C   0  0  0  0  0  0  0  0  0  0  0  0
    4.2868   -0.0000    0.0000 C   0  0  0  0  0  0  0  0  0  0  0  0
    3.5724   -0.4125    0.0000 C   0  0  0  0  0  0  0  0  0  0  0  0
    2.8579    0.0000    0.0000 C   0  0  0  0  0  0  0  0  0  0  0  0
    2.1434   -0.4125    0.0000 S   0  0  0  0  0  0  0  0  0  0  0  0
    1.4289    0.0000    0.0000 C   0  0  0  0  0  0  0  0  0  0  0  0
    0.7145   -0.4125    0.0000 C   0  0  0  0  0  0  0  0  0  0  0  0
    0.0000    0.0000    0.0000 C   0  0  0  0  0  0  0  0  0  0  0  0
    0.0000    0.8250    0.0000 C   0  0  0  0  0  0  0  0  0  0  0  0
   -0.7145    1.2375    0.0000 Cl  0  0  0  0  0  0  0  0  0  0  0  0
    0.7145    1.2375    0.0000 C   0  0  0  0  0  0  0  0  0  0  0  0
    1.4289    0.8250    0.0000 C   0  0  0  0  0  0  0  0  0  0  0  0
  1  2  1  0  0  0  0
  2  3  1  0  0  0  0
  2  4  1  0  0  0  0
  4  5  1  0  0  0  0
  5  6  1  0  0  0  0
  6  7  2  0  0  0  0
  7  8  1  0  0  0  0
  7 21  1  0  0  0  0
  8  9  2  0  0  0  0
  8 13  1  0  0  0  0
  9 10  1  0  0  0  0
 10 11  2  0  0  0  0
 11 12  1  0  0  0  0
 12 13  2  0  0  0  0
 13 14  1  0  0  0  0
 14 15  1  0  0  0  0
 15 16  2  0  0  0  0
 15 21  1  0  0  0  0
 16 17  1  0  0  0  0
 17 18  2  0  0  0  0
 18 19  1  0  0  0  0
 18 20  1  0  0  0  0
 20 21  2  0  0  0  0
M  END
$$$$

 OpenBabel12191814062D

 21 23  0  0  0  0  0  0  0  0999 V2000
    2.3747    3.6320    0.0000 C   0  0  0  0  0  0  0  0  0  0  0  0
    2.3747    2.8070    0.0000 N   0  0  0  0  0  0  0  0  0  0  0  0
    1.6603    2.3945    0.0000 C   0  0  0  0  0  0  0  0  0  0  0  0
    3.0892    2.3945    0.0000 C   0  0  0  0  0  0  0  0  0  0  0  0
    3.0892    1.5695    0.0000 C   0  0  0  0  0  0  0  0  0  0  0  0
    3.8037    1.1570    0.0000 C   0  0  0  0  0  0  0  0  0  0  0  0
    3.8037    0.3320    0.0000 C   0  0  0  0  0  0  0  0  0  0  0  0
    4.5470   -0.0260    0.0000 C   0  0  0  0  0  0  0  0  0  0  0  0
    5.1517    0.5352    0.0000 C   0  0  0  0  0  0  0  0  0  0  0  0
    5.9401    0.2920    0.0000 C   0  0  0  0  0  0  0  0  0  0  0  0
    6.1237   -0.5123    0.0000 C   0  0  0  0  0  0  0  0  0  0  0  0
    5.5189   -1.0735    0.0000 C   0  0  0  0  0  0  0  0  0  0  0  0
    4.7305   -0.8303    0.0000 C   0  0  0  0  0  0  0  0  0  0  0  0
    4.2162   -1.4753    0.0000 C   0  0  0  0  0  0  0  0  0  0  0  0
    3.3912   -1.4753    0.0000 C   0  0  0  0  0  0  0  0  0  0  0  0
    2.8768   -0.8303    0.0000 C   0  0  0  0  0  0  0  0  0  0  0  0
    2.0884   -1.0735    0.0000 C   0  0  0  0  0  0  0  0  0  0  0  0
    1.4837   -0.5123    0.0000 C   0  0  0  0  0  0  0  0  0  0  0  0
    1.6673    0.2920    0.0000 C   0  0  0  0  0  0  0  0  0  0  0  0
    2.4556    0.5352    0.0000 C   0  0  0  0  0  0  0  0  0  0  0  0
    3.0604   -0.0260    0.0000 C   0  0  0  0  0  0  0  0  0  0  0  0
  1  2  1  0  0  0  0
  2  3  1  0  0  0  0
  2  4  1  0  0  0  0
  4  5  1  0  0  0  0
  5  6  1  0  0  0  0
  6  7  2  0  0  0  0
  7  8  1  0  0  0  0
  7 21  1  0  0  0  0
  8  9  2  0  0  0  0
  8 13  1  0  0  0  0
  9 10  1  0  0  0  0
 10 11  2  0  0  0  0
 11 12  1  0  0  0  0
 12 13  2  0  0  0  0
 13 14  1  0  0  0  0
 14 15  2  0  0  0  0
 15 16  1  0  0  0  0
 16 17  2  0  0  0  0
 16 21  1  0  0  0  0
 17 18  1  0  0  0  0
 18 19  2  0  0  0  0
 19 20  1  0  0  0  0
 20 21  2  0  0  0  0
M  END
$$$$

 OpenBabel12191814062D

 21 23  0  0  0  0  0  0  0  0999 V2000
    2.3747    3.6320    0.0000 C   0  0  0  0  0  0  0  0  0  0  0  0
    2.3747    2.8070    0.0000 N   0  0  0  0  0  0  0  0  0  0  0  0
    1.6603    2.3945    0.0000 C   0  0  0  0  0  0  0  0  0  0  0  0
    3.0892    2.3945    0.0000 C   0  0  0  0  0  0  0  0  0  0  0  0
    3.0892    1.5695    0.0000 C   0  0  0  0  0  0  0  0  0  0  0  0
    3.8037    1.1570    0.0000 C   0  0  0  0  0  0  0  0  0  0  0  0
    3.8037    0.3320    0.0000 C   0  0  0  0  0  0  0  0  0  0  0  0
    4.5470   -0.0260    0.0000 C   0  0  0  0  0  0  0  0  0  0  0  0
    5.1517    0.5352    0.0000 C   0  0  0  0  0  0  0  0  0  0  0  0
    5.9401    0.2920    0.0000 C   0  0  0  0  0  0  0  0  0  0  0  0
    6.1237   -0.5123    0.0000 C   0  0  0  0  0  0  0  0  0  0  0  0
    5.5189   -1.0735    0.0000 C   0  0  0  0  0  0  0  0  0  0  0  0
    4.7305   -0.8303    0.0000 C   0  0  0  0  0  0  0  0  0  0  0  0
    4.2162   -1.4753    0.0000 C   0  0  0  0  0  0  0  0  0  0  0  0
    3.3912   -1.4753    0.0000 C   0  0  0  0  0  0  0  0  0  0  0  0
    2.8768   -0.8303    0.0000 C   0  0  0  0  0  0  0  0  0  0  0  0
    2.0884   -1.0735    0.0000 C   0  0  0  0  0  0  0  0  0  0  0  0
    1.4837   -0.5123    0.0000 C   0  0  0  0  0  0  0  0  0  0  0  0
    1.6673    0.2920    0.0000 C   0  0  0  0  0  0  0  0  0  0  0  0
    2.4556    0.5352    0.0000 C   0  0  0  0  0  0  0  0  0  0  0  0
    3.0604   -0.0260    0.0000 C   0  0  0  0  0  0  0  0  0  0  0  0
  1  2  1  0  0  0  0
  2  3  1  0  0  0  0
  2  4  1  0  0  0  0
  4  5  1  0  0  0  0
  5  6  1  0  0  0  0
  6  7  2  0  0  0  0
  7  8  1  0  0  0  0
  7 21  1  0  0  0  0
  8  9  2  0  0  0  0
  8 13  1  0  0  0  0
  9 10  1  0  0  0  0
 10 11  2  0  0  0  0
 11 12  1  0  0  0  0
 12 13  2  0  0  0  0
 13 14  1  0  0  0  0
 14 15  1  0  0  0  0
 15 16  1  0  0  0  0
 16 17  2  0  0  0  0
 16 21  1  0  0  0  0
 17 18  1  0  0  0  0
 18 19  2  0  0  0  0
 19 20  1  0  0  0  0
 20 21  2  0  0  0  0
M  END
$$$$

 OpenBabel12191814062D

 21 23  0  0  0  0  0  0  0  0999 V2000
   -1.9394   -2.3662    0.0000 C   0  0  0  0  0  0  0  0  0  0  0  0
   -1.2250   -1.9537    0.0000 N   0  0  0  0  0  0  0  0  0  0  0  0
   -1.2250   -1.1287    0.0000 C   0  0  0  0  0  0  0  0  0  0  0  0
   -0.5105   -2.3662    0.0000 C   0  0  0  0  0  0  0  0  0  0  0  0
    0.2040   -1.9537    0.0000 C   0  0  0  0  0  0  0  0  0  0  0  0
    0.9184   -2.3662    0.0000 C   0  0  0  0  0  0  0  0  0  0  0  0
    1.6329   -1.9537    0.0000 N   0  0  0  0  0  0  0  0  0  0  0  0
    1.5713   -1.1310    0.0000 C   0  0  0  0  0  0  0  0  0  0  0  0
    2.1760   -0.5698    0.0000 C   0  0  0  0  0  0  0  0  0  0  0  0
    2.9918   -0.6928    0.0000 C   0  0  0  0  0  0  0  0  0  0  0  0
    3.4043   -1.4073    0.0000 C   0  0  0  0  0  0  0  0  0  0  0  0
    3.1029   -2.1752    0.0000 C   0  0  0  0  0  0  0  0  0  0  0  0
    3.7077   -2.7364    0.0000 C   0  0  0  0  0  0  0  0  0  0  0  0
    3.5241   -3.5407    0.0000 C   0  0  0  0  0  0  0  0  0  0  0  0
    2.7358   -3.7839    0.0000 C   0  0  0  0  0  0  0  0  0  0  0  0
    2.1310   -3.2227    0.0000 C   0  0  0  0  0  0  0  0  0  0  0  0
    2.3146   -2.4184    0.0000 C   0  0  0  0  0  0  0  0  0  0  0  0
    1.9925    0.2345    0.0000 C   0  0  0  0  0  0  0  0  0  0  0  0
    1.2041    0.4776    0.0000 C   0  0  0  0  0  0  0  0  0  0  0  0
    0.5993   -0.0835    0.0000 Cl  0  3  0  0  0  0  0  0  0  0  0  0
    0.7829   -0.8878    0.0000 C   0  0  0  0  0  0  0  0  0  0  0  0
  1  2  1  0  0  0  0
  2  3  1  0  0  0  0
  2  4  1  0  0  0  0
  4  5  1  0  0  0  0
  5  6  1  0  0  0  0
  6  7  1  0  0  0  0
  7  8  1  0  0  0  0
  7 17  1  0  0  0  0
  8  9  2  0  0  0  0
  8 21  1  0  0  0  0
  9 10  1  0  0  0  0
  9 18  1  0  0  0  0
 10 11  1  0  0  0  0
 11 12  1  0  0  0  0
 12 13  2  0  0  0  0
 12 17  1  0  0  0  0
 13 14  1  0  0  0  0
 14 15  2  0  0  0  0
 15 16  1  0  0  0  0
 16 17  2  0  0  0  0
 18 19  2  0  0  0  0
 19 20  1  0  0  0  0
 20 21  1  0  0  0  0
M  CHG  1  20   1
M  END
$$$$

 OpenBabel12191814062D

 27 30  0  0  0  0  0  0  0  0999 V2000
    2.3747    3.6320    0.0000 C   0  0  0  0  0  0  0  0  0  0  0  0
    2.3747    2.8070    0.0000 N   0  0  0  0  0  0  0  0  0  0  0  0
    1.6603    2.3945    0.0000 C   0  0  0  0  0  0  0  0  0  0  0  0
    3.0892    2.3945    0.0000 C   0  0  0  0  0  0  0  0  0  0  0  0
    3.0892    1.5695    0.0000 C   0  0  0  0  0  0  0  0  0  0  0  0
    3.8037    1.1570    0.0000 C   0  0  0  0  0  0  0  0  0  0  0  0
    3.8037    0.3320    0.0000 N   0  0  0  0  0  0  0  0  0  0  0  0
    4.5470   -0.0260    0.0000 C   0  0  0  0  0  0  0  0  0  0  0  0
    5.1517    0.5352    0.0000 C   0  0  0  0  0  0  0  0  0  0  0  0
    5.9401    0.2920    0.0000 C   0  0  0  0  0  0  0  0  0  0  0  0
    6.1237   -0.5123    0.0000 C   0  0  0  0  0  0  0  0  0  0  0  0
    5.5189   -1.0735    0.0000 C   0  0  0  0  0  0  0  0  0  0  0  0
    4.7305   -0.8303    0.0000 C   0  0  0  0  0  0  0  0  0  0  0  0
    4.2162   -1.4753    0.0000 C   0  0  0  0  0  0  0  0  0  0  0  0
    3.3912   -1.4753    0.0000 N   0  0  0  0  0  0  0  0  0  0  0  0
    2.8768   -0.8303    0.0000 C   0  0  0  0  0  0  0  0  0  0  0  0
    2.0884   -1.0735    0.0000 C   0  0  0  0  0  0  0  0  0  0  0  0
    1.4837   -0.5123    0.0000 C   0  0  0  0  0  0  0  0  0  0  0  0
    1.6673    0.2920    0.0000 C   0  0  0  0  0  0  0  0  0  0  0  0
    2.4556    0.5352    0.0000 N   0  0  0  0  0  0  0  0  0  0  0  0
    3.0604   -0.0260    0.0000 C   0  0  0  0  0  0  0  0  0  0  0  0
    4.5741   -2.2186    0.0000 C   0  0  0  0  0  0  0  0  0  0  0  0
    5.3968   -2.2803    0.0000 C   0  0  0  0  0  0  0  0  0  0  0  0
    5.7548   -3.0236    0.0000 C   0  0  0  0  0  0  0  0  0  0  0  0
    5.2900   -3.7052    0.0000 C   0  0  0  0  0  0  0  0  0  0  0  0
    4.4673   -3.6435    0.0000 C   0  0  0  0  0  0  0  0  0  0  0  0
    4.1094   -2.9002    0.0000 C   0  0  0  0  0  0  0  0  0  0  0  0
  1  2  1  0  0  0  0
  2  3  1  0  0  0  0
  2  4  1  0  0  0  0
  4  5  1  0  0  0  0
  5  6  1  0  0  0  0
  6  7  1  0  0  0  0
  7  8  1  0  0  0  0
  7 21  1  0  0  0  0
  8  9  2  0  0  0  0
  8 13  1  0  0  0  0
  9 10  1  0  0  0  0
 10 11  2  0  0  0  0
 11 12  1  0  0  0  0
 12 13  2  0  0  0  0
 13 14  1  0  0  0  0
 14 15  2  0  0  0  0
 14 22  1  0  0  0  0
 15 16  1  0  0  0  0
 16 17  2  0  0  0  0
 16 21  1  0  0  0  0
 17 18  1  0  0  0  0
 18 19  2  0  0  0  0
 19 20  1  0  0  0  0
 20 21  2  0  0  0  0
 22 23  2  0  0  0  0
 22 27  1  0  0  0  0
 23 24  1  0  0  0  0
 24 25  2  0  0  0  0
 25 26  1  0  0  0  0
 26 27  2  0  0  0  0
M  END
$$$$

 OpenBabel12191814062D

 22 24  0  0  0  0  0  0  0  0999 V2000
   -0.5463   -2.6842    0.0000 C   0  0  0  0  0  0  0  0  0  0  0  0
    0.1681   -3.0967    0.0000 N   0  0  0  0  0  0  0  0  0  0  0  0
    0.1681   -3.9217    0.0000 C   0  0  0  0  0  0  0  0  0  0  0  0
    0.8826   -2.6842    0.0000 C   0  0  0  0  0  0  0  0  0  0  0  0
    1.5971   -3.0967    0.0000 C   0  0  0  0  0  0  0  0  0  0  0  0
    2.3116   -2.6842    0.0000 C   0  0  0  0  0  0  0  0  0  0  0  0
    3.0260   -3.0967    0.0000 N   0  0  0  0  0  0  0  0  0  0  0  0
    3.7077   -2.6319    0.0000 C   0  0  0  0  0  0  0  0  0  0  0  0
    3.5241   -1.8276    0.0000 C   0  0  0  0  0  0  0  0  0  0  0  0
    4.1289   -1.2665    0.0000 C   0  0  0  0  0  0  0  0  0  0  0  0
    4.9172   -1.5096    0.0000 C   0  0  0  0  0  0  0  0  0  0  0  0
    5.1008   -2.3139    0.0000 C   0  0  0  0  0  0  0  0  0  0  0  0
    4.4960   -2.8751    0.0000 C   0  0  0  0  0  0  0  0  0  0  0  0
    4.7974   -3.6431    0.0000 C   0  0  0  0  0  0  0  0  0  0  0  0
    4.3849   -4.3575    0.0000 C   0  0  0  0  0  0  0  0  0  0  0  0
    3.5691   -4.4805    0.0000 C   0  0  0  0  0  0  0  0  0  0  0  0
    3.3856   -5.2848    0.0000 C   0  0  0  0  0  0  0  0  0  0  0  0
    2.5972   -5.5280    0.0000 C   0  0  0  0  0  0  0  0  0  0  0  0
    1.9925   -4.9668    0.0000 C   0  0  0  0  0  0  0  0  0  0  0  0
    1.2041   -5.2100    0.0000 Cl  0  0  0  0  0  0  0  0  0  0  0  0
    2.1760   -4.1625    0.0000 C   0  0  0  0  0  0  0  0  0  0  0  0
    2.9644   -3.9193    0.0000 C   0  0  0  0  0  0  0  0  0  0  0  0
  1  2  1  0  0  0  0
  2  3  1  0  0  0  0
  2  4  1  0  0  0  0
  4  5  1  0  0  0  0
  5  6  1  0  0  0  0
  6  7  1  0  0  0  0
  7  8  1  0  0  0  0
  7 22  1  0  0  0  0
  8  9  2  0  0  0  0
  8 13  1  0  0  0  0
  9 10  1  0  0  0  0
 10 11  2  0  0  0  0
 11 12  1  0  0  0  0
 12 13  2  0  0  0  0
 13 14  1  0  0  0  0
 14 15  1  0  0  0  0
 15 16  1  0  0  0  0
 16 17  2  0  0  0  0
 16 22  1  0  0  0  0
 17 18  1  0  0  0  0
 18 19  2  0  0  0  0
 19 20  1  0  0  0  0
 19 21  1  0  0  0  0
 21 22  2  0  0  0  0
M  END
$$$$

 OpenBabel12191814062D

 22 24  0  0  0  0  0  0  0  0999 V2000
    2.1434    1.2375    0.0000 C   0  0  0  0  0  0  0  0  0  0  0  0
    2.8579    0.8250    0.0000 N   0  0  0  0  0  0  0  0  0  0  0  0
    2.8579    0.0000    0.0000 C   0  0  0  0  0  0  0  0  0  0  0  0
    3.5724    1.2375    0.0000 C   0  0  0  0  0  0  0  0  0  0  0  0
    4.2868    0.8250    0.0000 C   0  0  0  0  0  0  0  0  0  0  0  0
    5.0013    1.2375    0.0000 C   0  0  0  0  0  0  0  0  0  0  0  0
    5.7158    0.8250    0.0000 N   0  0  0  0  0  0  0  0  0  0  0  0
    6.4302    1.2375    0.0000 C   0  0  0  0  0  0  0  0  0  0  0  0
    6.4302    2.0625    0.0000 C   0  0  0  0  0  0  0  0  0  0  0  0
    7.1447    2.4750    0.0000 C   0  0  0  0  0  0  0  0  0  0  0  0
    7.8592    2.0625    0.0000 C   0  0  0  0  0  0  0  0  0  0  0  0
    7.8592    1.2375    0.0000 C   0  0  0  0  0  0  0  0  0  0  0  0
    7.1447    0.8250    0.0000 C   0  0  0  0  0  0  0  0  0  0  0  0
    7.1447    0.0000    0.0000 S   0  0  3  0  0  0  0  0  0  0  0  0
    7.8592   -0.4125    0.0000 O   0  0  0  0  0  0  0  0  0  0  0  0
    6.4302   -0.4125    0.0000 C   0  0  0  0  0  0  0  0  0  0  0  0
    6.4302   -1.2375    0.0000 C   0  0  0  0  0  0  0  0  0  0  0  0
    5.7158   -1.6500    0.0000 C   0  0  0  0  0  0  0  0  0  0  0  0
    5.0013   -1.2375    0.0000 C   0  0  0  0  0  0  0  0  0  0  0  0
    4.2868   -1.6500    0.0000 Cl  0  0  0  0  0  0  0  0  0  0  0  0
    5.0013   -0.4125    0.0000 C   0  0  0  0  0  0  0  0  0  0  0  0
    5.7158    0.0000    0.0000 C   0  0  0  0  0  0  0  0  0  0  0  0
  1  2  1  0  0  0  0
  2  3  1  0  0  0  0
  2  4  1  0  0  0  0
  4  5  1  0  0  0  0
  5  6  1  0  0  0  0
  6  7  1  0  0  0  0
  7  8  1  0  0  0  0
  7 22  1  0  0  0  0
  8  9  2  0  0  0  0
  8 13  1  0  0  0  0
  9 10  1  0  0  0  0
 10 11  2  0  0  0  0
 11 12  1  0  0  0  0
 12 13  2  0  0  0  0
 13 14  1  0  0  0  0
 14 15  2  0  0  0  0
 14 16  1  0  0  0  0
 16 17  2  0  0  0  0
 16 22  1  0  0  0  0
 17 18  1  0  0  0  0
 18 19  2  0  0  0  0
 19 20  1  0  0  0  0
 19 21  1  0  0  0  0
 21 22  2  0  0  0  0
M  END
$$$$

 OpenBabel12191814062D

 23 25  0  0  0  0  0  0  0  0999 V2000
    2.8579    0.0000    0.0000 C   0  0  0  0  0  0  0  0  0  0  0  0
    3.5724    0.4125    0.0000 N   0  0  0  0  0  0  0  0  0  0  0  0
    3.5724    1.2375    0.0000 C   0  0  0  0  0  0  0  0  0  0  0  0
    4.2868    0.0000    0.0000 C   0  0  0  0  0  0  0  0  0  0  0  0
    5.0013    0.4125    0.0000 C   0  0  0  0  0  0  0  0  0  0  0  0
    5.7158    0.0000    0.0000 C   0  0  0  0  0  0  0  0  0  0  0  0
    6.4302    0.4125    0.0000 N   0  0  0  0  0  0  0  0  0  0  0  0
    6.4302    1.2375    0.0000 C   0  0  0  0  0  0  0  0  0  0  0  0
    5.7158    1.6500    0.0000 C   0  0  0  0  0  0  0  0  0  0  0  0
    5.7158    2.4750    0.0000 C   0  0  0  0  0  0  0  0  0  0  0  0
    6.4302    2.8875    0.0000 C   0  0  0  0  0  0  0  0  0  0  0  0
    7.1447    2.4750    0.0000 C   0  0  0  0  0  0  0  0  0  0  0  0
    7.1447    1.6500    0.0000 C   0  0  0  0  0  0  0  0  0  0  0  0
    7.8592    1.2375    0.0000 S   0  0  0  0  0  0  0  0  0  0  0  0
    7.8592    0.4125    0.0000 C   0  0  0  0  0  0  0  0  0  0  0  0
    8.5737    0.0000    0.0000 C   0  0  0  0  0  0  0  0  0  0  0  0
    8.5737   -0.8250    0.0000 C   0  0  0  0  0  0  0  0  0  0  0  0
    7.8592   -1.2375    0.0000 C   0  0  0  0  0  0  0  0  0  0  0  0
    7.1447   -0.8250    0.0000 C   0  0  0  0  0  0  0  0  0  0  0  0
    7.1447    0.0000    0.0000 C   0  0  0  0  0  0  0  0  0  0  0  0
    7.8592   -2.0625    0.0000 C   0  0  0  0  0  0  0  0  0  0  0  0
    8.5737   -2.4750    0.0000 C   0  0  0  0  0  0  0  0  0  0  0  0
    7.1447   -2.4750    0.0000 O   0  0  0  0  0  0  0  0  0  0  0  0
  1  2  1  0  0  0  0
  2  3  1  0  0  0  0
  2  4  1  0  0  0  0
  4  5  1  0  0  0  0
  5  6  1  0  0  0  0
  6  7  1  0  0  0  0
  7  8  1  0  0  0  0
  7 20  1  0  0  0  0
  8  9  2  0  0  0  0
  8 13  1  0  0  0  0
  9 10  1  0  0  0  0
 10 11  2  0  0  0  0
 11 12  1  0  0  0  0
 12 13  2  0  0  0  0
 13 14  1  0  0  0  0
 14 15  1  0  0  0  0
 15 16  2  0  0  0  0
 15 20  1  0  0  0  0
 16 17  1  0  0  0  0
 17 18  2  0  0  0  0
 18 19  1  0  0  0  0
 18 21  1  0  0  0  0
 19 20  2  0  0  0  0
 21 22  1  0  0  0  0
 21 23  2  0  0  0  0
M  END
$$$$

 OpenBabel12191814062D

 24 26  0  0  0  0  0  0  0  0999 V2000
    2.8579    0.0000    0.0000 C   0  0  0  0  0  0  0  0  0  0  0  0
    3.5724    0.4125    0.0000 N   0  0  0  0  0  0  0  0  0  0  0  0
    3.5724    1.2375    0.0000 C   0  0  0  0  0  0  0  0  0  0  0  0
    4.2868    0.0000    0.0000 C   0  0  0  0  0  0  0  0  0  0  0  0
    5.0013    0.4125    0.0000 C   0  0  0  0  0  0  0  0  0  0  0  0
    5.7158    0.0000    0.0000 C   0  0  0  0  0  0  0  0  0  0  0  0
    6.4302    0.4125    0.0000 N   0  0  0  0  0  0  0  0  0  0  0  0
    6.4302    1.2375    0.0000 C   0  0  0  0  0  0  0  0  0  0  0  0
    5.7158    1.6500    0.0000 C   0  0  0  0  0  0  0  0  0  0  0  0
    5.7158    2.4750    0.0000 C   0  0  0  0  0  0  0  0  0  0  0  0
    6.4302    2.8875    0.0000 C   0  0  0  0  0  0  0  0  0  0  0  0
    7.1447    2.4750    0.0000 C   0  0  0  0  0  0  0  0  0  0  0  0
    7.1447    1.6500    0.0000 C   0  0  0  0  0  0  0  0  0  0  0  0
    7.8592    1.2375    0.0000 S   0  0  0  0  0  0  0  0  0  0  0  0
    7.8592    0.4125    0.0000 C   0  0  0  0  0  0  0  0  0  0  0  0
    8.5737    0.0000    0.0000 C   0  0  0  0  0  0  0  0  0  0  0  0
    8.5737   -0.8250    0.0000 C   0  0  0  0  0  0  0  0  0  0  0  0
    7.8592   -1.2375    0.0000 C   0  0  0  0  0  0  0  0  0  0  0  0
    7.1447   -0.8250    0.0000 C   0  0  0  0  0  0  0  0  0  0  0  0
    7.1447    0.0000    0.0000 C   0  0  0  0  0  0  0  0  0  0  0  0
    7.8592   -2.0625    0.0000 C   0  0  0  0  0  0  0  0  0  0  0  0
    7.8592   -2.8875    0.0000 F   0  0  0  0  0  0  0  0  0  0  0  0
    7.0342   -2.0625    0.0000 F   0  0  0  0  0  0  0  0  0  0  0  0
    8.6842   -2.0625    0.0000 F   0  0  0  0  0  0  0  0  0  0  0  0
  1  2  1  0  0  0  0
  2  3  1  0  0  0  0
  2  4  1  0  0  0  0
  4  5  1  0  0  0  0
  5  6  1  0  0  0  0
  6  7  1  0  0  0  0
  7  8  1  0  0  0  0
  7 20  1  0  0  0  0
  8  9  2  0  0  0  0
  8 13  1  0  0  0  0
  9 10  1  0  0  0  0
 10 11  2  0  0  0  0
 11 12  1  0  0  0  0
 12 13  2  0  0  0  0
 13 14  1  0  0  0  0
 14 15  1  0  0  0  0
 15 16  2  0  0  0  0
 15 20  1  0  0  0  0
 16 17  1  0  0  0  0
 17 18  2  0  0  0  0
 18 19  1  0  0  0  0
 18 21  1  0  0  0  0
 19 20  2  0  0  0  0
 21 22  1  0  0  0  0
 21 23  1  0  0  0  0
 21 24  1  0  0  0  0
M  END
$$$$

 OpenBabel12191814062D

 21 23  0  0  0  0  0  0  0  0999 V2000
    2.1434    1.2375    0.0000 C   0  0  0  0  0  0  0  0  0  0  0  0
    2.8579    0.8250    0.0000 N   0  0  0  0  0  0  0  0  0  0  0  0
    2.8579    0.0000    0.0000 C   0  0  0  0  0  0  0  0  0  0  0  0
    3.5724    1.2375    0.0000 C   0  0  0  0  0  0  0  0  0  0  0  0
    4.2868    0.8250    0.0000 C   0  0  0  0  0  0  0  0  0  0  0  0
    5.0013    1.2375    0.0000 C   0  0  0  0  0  0  0  0  0  0  0  0
    5.7158    0.8250    0.0000 N   0  0  0  0  0  0  0  0  0  0  0  0
    6.4302    1.2375    0.0000 C   0  0  0  0  0  0  0  0  0  0  0  0
    6.4302    2.0625    0.0000 C   0  0  0  0  0  0  0  0  0  0  0  0
    7.1447    2.4750    0.0000 C   0  0  0  0  0  0  0  0  0  0  0  0
    7.8592    2.0625    0.0000 C   0  0  0  0  0  0  0  0  0  0  0  0
    7.8592    1.2375    0.0000 C   0  0  0  0  0  0  0  0  0  0  0  0
    7.1447    0.8250    0.0000 C   0  0  0  0  0  0  0  0  0  0  0  0
    7.1447    0.0000    0.0000 S   0  0  0  0  0  0  0  0  0  0  0  0
    6.4302   -0.4125    0.0000 C   0  0  0  0  0  0  0  0  0  0  0  0
    6.4302   -1.2375    0.0000 C   0  0  0  0  0  0  0  0  0  0  0  0
    5.7158   -1.6500    0.0000 C   0  0  0  0  0  0  0  0  0  0  0  0
    5.0013   -1.2375    0.0000 C   0  0  0  0  0  0  0  0  0  0  0  0
    4.2868   -1.6500    0.0000 Cl  0  0  0  0  0  0  0  0  0  0  0  0
    5.0013   -0.4125    0.0000 C   0  0  0  0  0  0  0  0  0  0  0  0
    5.7158    0.0000    0.0000 C   0  0  0  0  0  0  0  0  0  0  0  0
  1  2  1  0  0  0  0
  2  3  1  0  0  0  0
  2  4  1  0  0  0  0
  4  5  1  0  0  0  0
  5  6  1  0  0  0  0
  6  7  1  0  0  0  0
  7  8  1  0  0  0  0
  7 21  1  0  0  0  0
  8  9  2  0  0  0  0
  8 13  1  0  0  0  0
  9 10  1  0  0  0  0
 10 11  2  0  0  0  0
 11 12  1  0  0  0  0
 12 13  2  0  0  0  0
 13 14  1  0  0  0  0
 14 15  1  0  0  0  0
 15 16  2  0  0  0  0
 15 21  1  0  0  0  0
 16 17  1  0  0  0  0
 17 18  2  0  0  0  0
 18 19  1  0  0  0  0
 18 20  1  0  0  0  0
 20 21  2  0  0  0  0
M  END
$$$$

 OpenBabel12191814062D

 23 25  0  0  0  0  0  0  0  0999 V2000
    4.2584    1.1193    0.0000 C   0  0  0  0  0  0  0  0  0  0  0  0
    4.9728    1.5318    0.0000 N   0  0  0  0  0  0  0  0  0  0  0  0
    4.9728    2.3568    0.0000 C   0  0  0  0  0  0  0  0  0  0  0  0
    5.6873    1.1193    0.0000 C   0  0  0  0  0  0  0  0  0  0  0  0
    6.4018    1.5318    0.0000 C   0  0  0  0  0  0  0  0  0  0  0  0
    7.1162    1.1193    0.0000 C   0  0  0  0  0  0  0  0  0  0  0  0
    7.8307    1.5318    0.0000 O   0  0  0  0  0  0  0  0  0  0  0  0
    8.5452    1.1193    0.0000 C   0  0  0  0  0  0  0  0  0  0  0  0
    9.2989    1.4548    0.0000 N   0  0  0  0  0  0  0  0  0  0  0  0
    9.8509    0.8418    0.0000 N   0  0  0  0  0  0  0  0  0  0  0  0
   10.6714    0.9280    0.0000 C   0  0  0  0  0  0  0  0  0  0  0  0
   11.1563    0.2606    0.0000 C   0  0  0  0  0  0  0  0  0  0  0  0
   11.9768    0.3468    0.0000 C   0  0  0  0  0  0  0  0  0  0  0  0
   12.4617   -0.3207    0.0000 C   0  0  0  0  0  0  0  0  0  0  0  0
   12.1261   -1.0743    0.0000 C   0  0  0  0  0  0  0  0  0  0  0  0
   11.3057   -1.1606    0.0000 C   0  0  0  0  0  0  0  0  0  0  0  0
   10.8207   -0.4931    0.0000 C   0  0  0  0  0  0  0  0  0  0  0  0
    9.4384    0.1273    0.0000 C   0  0  0  0  0  0  0  0  0  0  0  0
    9.6933   -0.6573    0.0000 C   0  0  0  0  0  0  0  0  0  0  0  0
    9.1413   -1.2704    0.0000 C   0  0  0  0  0  0  0  0  0  0  0  0
    8.3343   -1.0989    0.0000 C   0  0  0  0  0  0  0  0  0  0  0  0
    8.0794   -0.3143    0.0000 C   0  0  0  0  0  0  0  0  0  0  0  0
    8.6314    0.2988    0.0000 C   0  0  0  0  0  0  0  0  0  0  0  0
  1  2  1  0  0  0  0
  2  3  1  0  0  0  0
  2  4  1  0  0  0  0
  4  5  1  0  0  0  0
  5  6  1  0  0  0  0
  6  7  1  0  0  0  0
  7  8  1  0  0  0  0
  8  9  2  0  0  0  0
  8 23  1  0  0  0  0
  9 10  1  0  0  0  0
 10 11  1  0  0  0  0
 10 18  1  0  0  0  0
 11 12  1  0  0  0  0
 12 13  2  0  0  0  0
 12 17  1  0  0  0  0
 13 14  1  0  0  0  0
 14 15  2  0  0  0  0
 15 16  1  0  0  0  0
 16 17  2  0  0  0  0
 18 19  2  0  0  0  0
 18 23  1  0  0  0  0
 19 20  1  0  0  0  0
 20 21  2  0  0  0  0
 21 22  1  0  0  0  0
 22 23  2  0  0  0  0
M  END
$$$$

 OpenBabel12191814062D

 30 32  0  0  0  0  0  0  0  0999 V2000
    3.5724   -2.8875    0.0000 C   0  0  0  0  0  0  0  0  0  0  0  0
    4.2868   -3.3000    0.0000 N   0  0  0  0  0  0  0  0  0  0  0  0
    4.2868   -4.1250    0.0000 C   0  0  0  0  0  0  0  0  0  0  0  0
    5.0013   -2.8875    0.0000 C   0  0  0  0  0  0  0  0  0  0  0  0
    5.7158   -3.3000    0.0000 C   0  0  0  0  0  0  0  0  0  0  0  0
    6.4302   -2.8875    0.0000 O   0  0  0  0  0  0  0  0  0  0  0  0
    7.1447   -3.3000    0.0000 C   0  0  0  0  0  0  0  0  0  0  0  0
    7.8592   -2.8875    0.0000 C   0  0  0  0  0  0  0  0  0  0  0  0
    8.5737   -3.3000    0.0000 C   0  0  0  0  0  0  0  0  0  0  0  0
    8.5737   -4.1250    0.0000 C   0  0  0  0  0  0  0  0  0  0  0  0
    7.8592   -4.5375    0.0000 C   0  0  0  0  0  0  0  0  0  0  0  0
    7.1447   -4.1250    0.0000 C   0  0  0  0  0  0  0  0  0  0  0  0
    9.2881   -4.5375    0.0000 C   0  0  0  0  0  0  0  0  0  0  0  0
   10.0026   -4.1250    0.0000 C   0  0  0  0  0  0  0  0  0  0  0  0
   10.7171   -4.5375    0.0000 C   0  0  0  0  0  0  0  0  0  0  0  0
   11.4315   -4.1250    0.0000 C   0  0  0  0  0  0  0  0  0  0  0  0
   12.1460   -4.5375    0.0000 Cl  0  0  0  0  0  0  0  0  0  0  0  0
   10.0026   -3.3000    0.0000 C   0  0  0  0  0  0  0  0  0  0  0  0
    9.2881   -2.8875    0.0000 C   0  0  0  0  0  0  0  0  0  0  0  0
    9.2881   -2.0625    0.0000 C   0  0  0  0  0  0  0  0  0  0  0  0
   10.0026   -1.6500    0.0000 C   0  0  0  0  0  0  0  0  0  0  0  0
   10.7171   -2.0625    0.0000 C   0  0  0  0  0  0  0  0  0  0  0  0
   10.7171   -2.8875    0.0000 C   0  0  0  0  0  0  0  0  0  0  0  0
    9.2881   -5.3625    0.0000 C   0  0  0  0  0  0  0  0  0  0  0  0
   10.0026   -5.7750    0.0000 C   0  0  0  0  0  0  0  0  0  0  0  0
   10.0026   -6.6000    0.0000 C   0  0  0  0  0  0  0  0  0  0  0  0
    9.2881   -7.0125    0.0000 C   0  0  0  0  0  0  0  0  0  0  0  0
    9.2881   -7.8375    0.0000 O   0  0  0  0  0  0  0  0  0  0  0  0
    8.5737   -6.6000    0.0000 C   0  0  0  0  0  0  0  0  0  0  0  0
    8.5737   -5.7750    0.0000 C   0  0  0  0  0  0  0  0  0  0  0  0
  1  2  1  0  0  0  0
  2  3  1  0  0  0  0
  2  4  1  0  0  0  0
  4  5  1  0  0  0  0
  5  6  1  0  0  0  0
  6  7  1  0  0  0  0
  7  8  2  0  0  0  0
  7 12  1  0  0  0  0
  8  9  1  0  0  0  0
  9 10  2  0  0  0  0
 10 11  1  0  0  0  0
 10 13  1  0  0  0  0
 11 12  2  0  0  0  0
 13 14  2  0  0  0  0
 13 24  1  0  0  0  0
 14 15  1  0  0  0  0
 14 18  1  0  0  0  0
 15 16  1  0  0  0  0
 16 17  1  0  0  0  0
 18 19  2  0  0  0  0
 18 23  1  0  0  0  0
 19 20  1  0  0  0  0
 20 21  2  0  0  0  0
 21 22  1  0  0  0  0
 22 23  2  0  0  0  0
 24 25  2  0  0  0  0
 24 30  1  0  0  0  0
 25 26  1  0  0  0  0
 26 27  2  0  0  0  0
 27 28  1  0  0  0  0
 27 29  1  0  0  0  0
 29 30  2  0  0  0  0
M  END
$$$$

 OpenBabel12191814062D

 29 31  0  0  0  0  0  0  0  0999 V2000
    3.5724   -2.8875    0.0000 C   0  0  0  0  0  0  0  0  0  0  0  0
    4.2868   -3.3000    0.0000 N   0  0  0  0  0  0  0  0  0  0  0  0
    4.2868   -4.1250    0.0000 C   0  0  0  0  0  0  0  0  0  0  0  0
    5.0013   -2.8875    0.0000 C   0  0  0  0  0  0  0  0  0  0  0  0
    5.7158   -3.3000    0.0000 C   0  0  0  0  0  0  0  0  0  0  0  0
    6.4302   -2.8875    0.0000 O   0  0  0  0  0  0  0  0  0  0  0  0
    7.1447   -3.3000    0.0000 C   0  0  0  0  0  0  0  0  0  0  0  0
    7.8592   -2.8875    0.0000 C   0  0  0  0  0  0  0  0  0  0  0  0
    8.5737   -3.3000    0.0000 C   0  0  0  0  0  0  0  0  0  0  0  0
    8.5737   -4.1250    0.0000 C   0  0  0  0  0  0  0  0  0  0  0  0
    7.8592   -4.5375    0.0000 C   0  0  0  0  0  0  0  0  0  0  0  0
    7.1447   -4.1250    0.0000 C   0  0  0  0  0  0  0  0  0  0  0  0
    9.2881   -4.5375    0.0000 C   0  0  0  0  0  0  0  0  0  0  0  0
   10.0026   -4.1250    0.0000 C   0  0  0  0  0  0  0  0  0  0  0  0
   10.7171   -4.5375    0.0000 C   0  0  0  0  0  0  0  0  0  0  0  0
   11.4315   -4.1250    0.0000 C   0  0  0  0  0  0  0  0  0  0  0  0
   12.1460   -4.5375    0.0000 Cl  0  0  0  0  0  0  0  0  0  0  0  0
   10.0026   -3.3000    0.0000 C   0  0  0  0  0  0  0  0  0  0  0  0
    9.2881   -2.8875    0.0000 C   0  0  0  0  0  0  0  0  0  0  0  0
    9.2881   -2.0625    0.0000 C   0  0  0  0  0  0  0  0  0  0  0  0
   10.0026   -1.6500    0.0000 C   0  0  0  0  0  0  0  0  0  0  0  0
   10.7171   -2.0625    0.0000 C   0  0  0  0  0  0  0  0  0  0  0  0
   10.7171   -2.8875    0.0000 C   0  0  0  0  0  0  0  0  0  0  0  0
    9.2881   -5.3625    0.0000 C   0  0  0  0  0  0  0  0  0  0  0  0
   10.0026   -5.7750    0.0000 C   0  0  0  0  0  0  0  0  0  0  0  0
   10.0026   -6.6000    0.0000 C   0  0  0  0  0  0  0  0  0  0  0  0
    9.2881   -7.0125    0.0000 C   0  0  0  0  0  0  0  0  0  0  0  0
    8.5737   -6.6000    0.0000 C   0  0  0  0  0  0  0  0  0  0  0  0
    8.5737   -5.7750    0.0000 C   0  0  0  0  0  0  0  0  0  0  0  0
  1  2  1  0  0  0  0
  2  3  1  0  0  0  0
  2  4  1  0  0  0  0
  4  5  1  0  0  0  0
  5  6  1  0  0  0  0
  6  7  1  0  0  0  0
  7  8  2  0  0  0  0
  7 12  1  0  0  0  0
  8  9  1  0  0  0  0
  9 10  2  0  0  0  0
 10 11  1  0  0  0  0
 10 13  1  0  0  0  0
 11 12  2  0  0  0  0
 13 14  2  0  0  0  0
 13 24  1  0  0  0  0
 14 15  1  0  0  0  0
 14 18  1  0  0  0  0
 15 16  1  0  0  0  0
 16 17  1  0  0  0  0
 18 19  2  0  0  0  0
 18 23  1  0  0  0  0
 19 20  1  0  0  0  0
 20 21  2  0  0  0  0
 21 22  1  0  0  0  0
 22 23  2  0  0  0  0
 24 25  2  0  0  0  0
 24 29  1  0  0  0  0
 25 26  1  0  0  0  0
 26 27  2  0  0  0  0
 27 28  1  0  0  0  0
 28 29  2  0  0  0  0
M  END
$$$$

 OpenBabel12191814062D

 30 33  0  0  0  0  0  0  0  0999 V2000
   -0.7145   -2.8875    0.0000 C   0  0  0  0  0  0  0  0  0  0  0  0
    0.0000   -3.3000    0.0000 N   0  0  0  0  0  0  0  0  0  0  0  0
    0.0000   -4.1250    0.0000 C   0  0  0  0  0  0  0  0  0  0  0  0
    0.7145   -2.8875    0.0000 S   0  0  0  0  0  0  0  0  0  0  0  0
    1.1270   -3.6020    0.0000 O   0  0  0  0  0  0  0  0  0  0  0  0
    0.3020   -2.1730    0.0000 O   0  0  0  0  0  0  0  0  0  0  0  0
    1.4289   -2.4750    0.0000 C   0  0  0  0  0  0  0  0  0  0  0  0
    1.4289   -1.6500    0.0000 C   0  0  0  0  0  0  0  0  0  0  0  0
    2.1434   -1.2375    0.0000 C   0  0  0  0  0  0  0  0  0  0  0  0
    2.8579   -1.6500    0.0000 C   0  0  0  0  0  0  0  0  0  0  0  0
    3.5724   -1.2375    0.0000 S   0  0  0  0  0  0  0  0  0  0  0  0
    4.2868   -1.6500    0.0000 C   0  0  0  0  0  0  0  0  0  0  0  0
    5.0013   -1.2375    0.0000 C   0  0  0  0  0  0  0  0  0  0  0  0
    5.7158   -1.6500    0.0000 C   0  0  0  0  0  0  0  0  0  0  0  0
    5.7158   -2.4750    0.0000 C   0  0  0  0  0  0  0  0  0  0  0  0
    5.0013   -2.8875    0.0000 C   0  0  0  0  0  0  0  0  0  0  0  0
    4.2868   -2.4750    0.0000 C   0  0  0  0  0  0  0  0  0  0  0  0
    3.5724   -2.8875    0.0000 C   0  0  0  0  0  0  0  0  0  0  0  0
    3.5724   -3.7125    0.0000 C   0  0  0  0  0  0  0  0  0  0  0  0
    2.8579   -4.1250    0.0000 C   0  0  0  0  0  0  0  0  0  0  0  0
    2.8579   -4.9500    0.0000 C   0  0  0  0  0  0  0  0  0  0  0  0
    2.1434   -5.3625    0.0000 N   0  0  0  0  0  0  0  0  0  0  0  0
    2.1434   -6.1875    0.0000 C   0  0  0  0  0  0  0  0  0  0  0  0
    1.4289   -6.6000    0.0000 C   0  0  0  0  0  0  0  0  0  0  0  0
    0.7145   -6.1875    0.0000 N   0  0  0  0  0  0  0  0  0  0  0  0
    0.0000   -6.6000    0.0000 C   0  0  0  0  0  0  0  0  0  0  0  0
    0.7145   -5.3625    0.0000 C   0  0  0  0  0  0  0  0  0  0  0  0
    1.4289   -4.9500    0.0000 C   0  0  0  0  0  0  0  0  0  0  0  0
    2.8579   -2.4750    0.0000 C   0  0  0  0  0  0  0  0  0  0  0  0
    2.1434   -2.8875    0.0000 C   0  0  0  0  0  0  0  0  0  0  0  0
  1  2  1  0  0  0  0
  2  3  1  0  0  0  0
  2  4  1  0  0  0  0
  4  5  2  0  0  0  0
  4  6  2  0  0  0  0
  4  7  1  0  0  0  0
  7  8  2  0  0  0  0
  7 30  1  0  0  0  0
  8  9  1  0  0  0  0
  9 10  2  0  0  0  0
 10 11  1  0  0  0  0
 10 29  1  0  0  0  0
 11 12  1  0  0  0  0
 12 13  2  0  0  0  0
 12 17  1  0  0  0  0
 13 14  1  0  0  0  0
 14 15  2  0  0  0  0
 15 16  1  0  0  0  0
 16 17  2  0  0  0  0
 17 18  1  0  0  0  0
 18 19  2  0  0  0  0
 18 29  1  0  0  0  0
 19 20  1  0  0  0  0
 20 21  1  0  0  0  0
 21 22  1  0  0  0  0
 22 23  1  0  0  0  0
 22 28  1  0  0  0  0
 23 24  1  0  0  0  0
 24 25  1  0  0  0  0
 25 26  1  0  0  0  0
 25 27  1  0  0  0  0
 27 28  1  0  0  0  0
 29 30  2  0  0  0  0
M  END
$$$$

 OpenBabel12191814062D

 30 33  0  0  0  0  0  0  0  0999 V2000
   -0.7145   -2.8875    0.0000 C   0  0  0  0  0  0  0  0  0  0  0  0
    0.0000   -3.3000    0.0000 N   0  0  0  0  0  0  0  0  0  0  0  0
    0.0000   -4.1250    0.0000 C   0  0  0  0  0  0  0  0  0  0  0  0
    0.7145   -2.8875    0.0000 S   0  0  0  0  0  0  0  0  0  0  0  0
    1.1270   -3.6020    0.0000 O   0  0  0  0  0  0  0  0  0  0  0  0
    0.3020   -2.1730    0.0000 O   0  0  0  0  0  0  0  0  0  0  0  0
    1.4289   -2.4750    0.0000 C   0  0  0  0  0  0  0  0  0  0  0  0
    1.4289   -1.6500    0.0000 C   0  0  0  0  0  0  0  0  0  0  0  0
    2.1434   -1.2375    0.0000 C   0  0  0  0  0  0  0  0  0  0  0  0
    2.8579   -1.6500    0.0000 C   0  0  0  0  0  0  0  0  0  0  0  0
    3.5724   -1.2375    0.0000 S   0  0  0  0  0  0  0  0  0  0  0  0
    4.2868   -1.6500    0.0000 C   0  0  0  0  0  0  0  0  0  0  0  0
    5.0013   -1.2375    0.0000 C   0  0  0  0  0  0  0  0  0  0  0  0
    5.7158   -1.6500    0.0000 C   0  0  0  0  0  0  0  0  0  0  0  0
    5.7158   -2.4750    0.0000 C   0  0  0  0  0  0  0  0  0  0  0  0
    5.0013   -2.8875    0.0000 C   0  0  0  0  0  0  0  0  0  0  0  0
    4.2868   -2.4750    0.0000 C   0  0  0  0  0  0  0  0  0  0  0  0
    3.5724   -2.8875    0.0000 N   0  0  0  0  0  0  0  0  0  0  0  0
    3.5724   -3.7125    0.0000 C   0  0  0  0  0  0  0  0  0  0  0  0
    2.8579   -4.1250    0.0000 C   0  0  0  0  0  0  0  0  0  0  0  0
    2.8579   -4.9500    0.0000 C   0  0  0  0  0  0  0  0  0  0  0  0
    2.1434   -5.3625    0.0000 N   0  0  0  0  0  0  0  0  0  0  0  0
    2.1434   -6.1875    0.0000 C   0  0  0  0  0  0  0  0  0  0  0  0
    1.4289   -6.6000    0.0000 C   0  0  0  0  0  0  0  0  0  0  0  0
    0.7145   -6.1875    0.0000 N   0  0  0  0  0  0  0  0  0  0  0  0
    0.0000   -6.6000    0.0000 C   0  0  0  0  0  0  0  0  0  0  0  0
    0.7145   -5.3625    0.0000 C   0  0  0  0  0  0  0  0  0  0  0  0
    1.4289   -4.9500    0.0000 C   0  0  0  0  0  0  0  0  0  0  0  0
    2.8579   -2.4750    0.0000 C   0  0  0  0  0  0  0  0  0  0  0  0
    2.1434   -2.8875    0.0000 C   0  0  0  0  0  0  0  0  0  0  0  0
  1  2  1  0  0  0  0
  2  3  1  0  0  0  0
  2  4  1  0  0  0  0
  4  5  2  0  0  0  0
  4  6  2  0  0  0  0
  4  7  1  0  0  0  0
  7  8  2  0  0  0  0
  7 30  1  0  0  0  0
  8  9  1  0  0  0  0
  9 10  2  0  0  0  0
 10 11  1  0  0  0  0
 10 29  1  0  0  0  0
 11 12  1  0  0  0  0
 12 13  2  0  0  0  0
 12 17  1  0  0  0  0
 13 14  1  0  0  0  0
 14 15  2  0  0  0  0
 15 16  1  0  0  0  0
 16 17  2  0  0  0  0
 17 18  1  0  0  0  0
 18 19  1  0  0  0  0
 18 29  1  0  0  0  0
 19 20  1  0  0  0  0
 20 21  1  0  0  0  0
 21 22  1  0  0  0  0
 22 23  1  0  0  0  0
 22 28  1  0  0  0  0
 23 24  1  0  0  0  0
 24 25  1  0  0  0  0
 25 26  1  0  0  0  0
 25 27  1  0  0  0  0
 27 28  1  0  0  0  0
 29 30  2  0  0  0  0
M  END
$$$$

 OpenBabel12191814062D

 36 39  0  0  0  0  0  0  0  0999 V2000
    2.8579   -2.4750    0.0000 C   0  0  0  0  0  0  0  0  0  0  0  0
    3.5724   -2.8875    0.0000 N   0  0  0  0  0  0  0  0  0  0  0  0
    3.5724   -3.7125    0.0000 C   0  0  0  0  0  0  0  0  0  0  0  0
    2.8579   -4.1250    0.0000 C   0  0  0  0  0  0  0  0  0  0  0  0
    2.8579   -4.9500    0.0000 C   0  0  0  0  0  0  0  0  0  0  0  0
    3.5724   -5.3625    0.0000 C   0  0  0  0  0  0  0  0  0  0  0  0
    3.5724   -6.1875    0.0000 C   0  0  0  0  0  0  0  0  0  0  0  0
    2.8579   -6.6000    0.0000 C   0  0  0  0  0  0  0  0  0  0  0  0
    2.1434   -6.1875    0.0000 C   0  0  0  0  0  0  0  0  0  0  0  0
    2.1434   -5.3625    0.0000 C   0  0  0  0  0  0  0  0  0  0  0  0
    2.1434   -3.7125    0.0000 C   0  0  0  0  0  0  0  0  0  0  0  0
    1.4289   -4.1250    0.0000 C   0  0  0  0  0  0  0  0  0  0  0  0
    0.7145   -3.7125    0.0000 C   0  0  0  0  0  0  0  0  0  0  0  0
    0.7145   -2.8875    0.0000 C   0  0  0  0  0  0  0  0  0  0  0  0
    1.4289   -2.4750    0.0000 C   0  0  0  0  0  0  0  0  0  0  0  0
    2.1434   -2.8875    0.0000 C   0  0  0  0  0  0  0  0  0  0  0  0
    4.2868   -2.4750    0.0000 C   0  0  0  0  0  0  0  0  0  0  0  0
    4.2868   -1.6500    0.0000 C   0  0  0  0  0  0  0  0  0  0  0  0
    5.0013   -1.2375    0.0000 C   0  0  0  0  0  0  0  0  0  0  0  0
    5.7158   -1.6500    0.0000 N   0  0  0  0  0  0  0  0  0  0  0  0
    5.7158   -2.4750    0.0000 C   0  0  0  0  0  0  0  0  0  0  0  0
    5.0013   -2.8875    0.0000 C   0  0  0  0  0  0  0  0  0  0  0  0
    6.4302   -1.2375    0.0000 C   0  0  0  0  0  0  0  0  0  0  0  0
    6.4302   -0.4125    0.0000 N   0  0  0  0  0  0  0  0  0  0  0  0
    7.1447   -0.0000    0.0000 C   0  0  0  0  0  0  0  0  0  0  0  0
    7.1447    0.8250    0.0000 N   0  0  0  0  0  0  0  0  0  0  0  0
    6.4302    1.2375    0.0000 C   0  0  0  0  0  0  0  0  0  0  0  0
    6.4302    2.0625    0.0000 C   0  0  0  0  0  0  0  0  0  0  0  0
    7.1447    2.4750    0.0000 C   0  0  0  0  0  0  0  0  0  0  0  0
    7.8592   -0.4125    0.0000 N   0  0  0  0  0  0  0  0  0  0  0  0
    7.8592   -1.2375    0.0000 C   0  0  0  0  0  0  0  0  0  0  0  0
    8.5737   -1.6500    0.0000 N   0  0  0  0  0  0  0  0  0  0  0  0
    8.5737   -2.4750    0.0000 C   0  0  0  0  0  0  0  0  0  0  0  0
    9.2881   -2.8875    0.0000 C   0  0  0  0  0  0  0  0  0  0  0  0
    9.2881   -3.7125    0.0000 C   0  0  0  0  0  0  0  0  0  0  0  0
    7.1447   -1.6500    0.0000 N   0  0  0  0  0  0  0  0  0  0  0  0
  1  2  1  0  0  0  0
  2  3  1  0  0  0  0
  2 17  1  0  0  0  0
  3  4  1  0  0  0  0
  4  5  1  0  0  0  0
  4 11  1  0  0  0  0
  5  6  2  0  0  0  0
  5 10  1  0  0  0  0
  6  7  1  0  0  0  0
  7  8  2  0  0  0  0
  8  9  1  0  0  0  0
  9 10  2  0  0  0  0
 11 12  2  0  0  0  0
 11 16  1  0  0  0  0
 12 13  1  0  0  0  0
 13 14  2  0  0  0  0
 14 15  1  0  0  0  0
 15 16  2  0  0  0  0
 17 18  1  0  0  0  0
 17 22  1  0  0  0  0
 18 19  1  0  0  0  0
 19 20  1  0  0  0  0
 20 21  1  0  0  0  0
 20 23  1  0  0  0  0
 21 22  1  0  0  0  0
 23 24  2  0  0  0  0
 23 36  1  0  0  0  0
 24 25  1  0  0  0  0
 25 26  1  0  0  0  0
 25 30  2  0  0  0  0
 26 27  1  0  0  0  0
 27 28  1  0  0  0  0
 28 29  2  0  0  0  0
 30 31  1  0  0  0  0
 31 32  1  0  0  0  0
 31 36  2  0  0  0  0
 32 33  1  0  0  0  0
 33 34  1  0  0  0  0
 34 35  2  0  0  0  0
M  END
$$$$

 OpenBabel12191814062D

 27 31  0  0  0  0  0  0  0  0999 V2000
    3.0984    4.0756    0.0000 C   0  0  0  0  0  0  0  0  0  0  0  0
    2.2748    4.1251    0.0000 N   0  0  0  0  0  0  0  0  0  0  0  0
    1.8203    3.4366    0.0000 C   0  0  0  0  0  0  0  0  0  0  0  0
    2.1892    2.6987    0.0000 C   0  0  0  0  0  0  0  0  0  0  0  0
    3.0030    2.5634    0.0000 C   0  0  0  0  0  0  0  0  0  0  0  0
    3.1259    1.7476    0.0000 N   0  0  0  0  0  0  0  0  0  0  0  0
    3.8744    1.4007    0.0000 C   0  0  0  0  0  0  0  0  0  0  0  0
    4.4708    1.9708    0.0000 C   0  0  0  0  0  0  0  0  0  0  0  0
    5.2627    1.7393    0.0000 C   0  0  0  0  0  0  0  0  0  0  0  0
    5.4582    0.9378    0.0000 C   0  0  0  0  0  0  0  0  0  0  0  0
    4.8618    0.3678    0.0000 C   0  0  0  0  0  0  0  0  0  0  0  0
    4.0699    0.5992    0.0000 C   0  0  0  0  0  0  0  0  0  0  0  0
    3.5652   -0.0533    0.0000 C   0  0  0  0  0  0  0  0  0  0  0  0
    2.7402   -0.0656    0.0000 C   0  0  0  0  0  0  0  0  0  0  0  0
    2.2164    0.5718    0.0000 C   0  0  0  0  0  0  0  0  0  0  0  0
    1.3699    0.3760    0.0000 C   0  0  0  0  0  0  0  0  0  0  0  0
    0.7910    0.9638    0.0000 C   0  0  0  0  0  0  0  0  0  0  0  0
    1.0106    1.7590    0.0000 C   0  0  0  0  0  0  0  0  0  0  0  0
    1.8091    1.9665    0.0000 C   0  0  0  0  0  0  0  0  0  0  0  0
    2.3880    1.3787    0.0000 C   0  0  0  0  0  0  0  0  0  0  0  0
    1.9059    4.8630    0.0000 C   0  0  0  0  0  0  0  0  0  0  0  0
    2.3605    5.5514    0.0000 C   0  0  0  0  0  0  0  0  0  0  0  0
    1.9915    6.2894    0.0000 C   0  0  0  0  0  0  0  0  0  0  0  0
    2.4461    6.9778    0.0000 C   0  0  0  0  0  0  0  0  0  0  0  0
    3.2696    6.9284    0.0000 C   0  0  0  0  0  0  0  0  0  0  0  0
    3.6386    6.1905    0.0000 C   0  0  0  0  0  0  0  0  0  0  0  0
    3.1840    5.5020    0.0000 C   0  0  0  0  0  0  0  0  0  0  0  0
  1  2  1  0  0  0  0
  2  3  1  0  0  0  0
  2 21  1  0  0  0  0
  3  4  1  0  0  0  0
  4  5  2  0  0  0  0
  4 19  1  0  0  0  0
  5  6  1  0  0  0  0
  6  7  1  0  0  0  0
  6 20  1  0  0  0  0
  7  8  2  0  0  0  0
  7 12  1  0  0  0  0
  8  9  1  0  0  0  0
  9 10  2  0  0  0  0
 10 11  1  0  0  0  0
 11 12  2  0  0  0  0
 12 13  1  0  0  0  0
 13 14  1  0  0  0  0
 14 15  1  0  0  0  0
 15 16  2  0  0  0  0
 15 20  1  0  0  0  0
 16 17  1  0  0  0  0
 17 18  2  0  0  0  0
 18 19  1  0  0  0  0
 19 20  2  0  0  0  0
 21 22  1  0  0  0  0
 22 23  2  0  0  0  0
 22 27  1  0  0  0  0
 23 24  1  0  0  0  0
 24 25  2  0  0  0  0
 25 26  1  0  0  0  0
 26 27  2  0  0  0  0
M  END
$$$$

 OpenBabel12191814062D

 41 45  0  0  0  0  0  0  0  0999 V2000
   -4.2868   -7.4250    0.0000 C   0  0  0  0  0  0  0  0  0  0  0  0
   -3.5724   -7.8375    0.0000 N   0  0  0  0  0  0  0  0  0  0  0  0
   -2.8579   -7.4250    0.0000 C   0  0  0  0  0  0  0  0  0  0  0  0
   -2.8579   -6.6000    0.0000 C   0  0  0  0  0  0  0  0  0  0  0  0
   -2.1434   -6.1875    0.0000 C   0  0  0  0  0  0  0  0  0  0  0  0
   -2.1434   -5.3625    0.0000 C   0  0  0  0  0  0  0  0  0  0  0  0
   -1.4289   -4.9500    0.0000 C   0  0  0  0  0  0  0  0  0  0  0  0
   -0.7145   -5.3625    0.0000 C   0  0  0  0  0  0  0  0  0  0  0  0
    0.0000   -4.9500    0.0000 N   0  0  0  0  0  0  0  0  0  0  0  0
    0.0000   -4.1250    0.0000 C   0  0  0  0  0  0  0  0  0  0  0  0
    0.7145   -3.7125    0.0000 O   0  0  0  0  0  0  0  0  0  0  0  0
   -0.7145   -3.7125    0.0000 C   0  0  0  0  0  0  0  0  0  0  0  0
   -1.4289   -4.1250    0.0000 C   0  0  0  0  0  0  0  0  0  0  0  0
   -2.1434   -3.7125    0.0000 C   0  0  0  0  0  0  0  0  0  0  0  0
   -2.1434   -2.8875    0.0000 C   0  0  0  0  0  0  0  0  0  0  0  0
   -1.4289   -2.4750    0.0000 C   0  0  0  0  0  0  0  0  0  0  0  0
   -0.7145   -2.8875    0.0000 C   0  0  0  0  0  0  0  0  0  0  0  0
    0.0000   -2.4750    0.0000 N   0  0  0  0  0  0  0  0  0  0  0  0
    0.0000   -1.6500    0.0000 C   0  0  0  0  0  0  0  0  0  0  0  0
   -0.7145   -1.2375    0.0000 O   0  0  0  0  0  0  0  0  0  0  0  0
    0.7145   -1.2375    0.0000 C   0  0  0  0  0  0  0  0  0  0  0  0
    0.7145   -0.4125    0.0000 C   0  0  0  0  0  0  0  0  0  0  0  0
    1.4289    0.0000    0.0000 N   0  0  0  0  0  0  0  0  0  0  0  0
    2.1434   -0.4125    0.0000 C   0  0  0  0  0  0  0  0  0  0  0  0
    2.8579    0.0000    0.0000 C   0  0  0  0  0  0  0  0  0  0  0  0
    3.5724   -0.4125    0.0000 C   0  0  0  0  0  0  0  0  0  0  0  0
    3.5724   -1.2375    0.0000 C   0  0  0  0  0  0  0  0  0  0  0  0
    2.8579   -1.6500    0.0000 C   0  0  0  0  0  0  0  0  0  0  0  0
    2.1434   -1.2375    0.0000 C   0  0  0  0  0  0  0  0  0  0  0  0
    1.4289   -1.6500    0.0000 C   0  0  0  0  0  0  0  0  0  0  0  0
   -0.7145   -6.1875    0.0000 C   0  0  0  0  0  0  0  0  0  0  0  0
   -1.4289   -6.6000    0.0000 C   0  0  0  0  0  0  0  0  0  0  0  0
   -3.5724   -8.6625    0.0000 C   0  0  0  0  0  0  0  0  0  0  0  0
   -4.2868   -9.0750    0.0000 C   0  0  0  0  0  0  0  0  0  0  0  0
   -4.2868   -9.9000    0.0000 C   0  0  0  0  0  0  0  0  0  0  0  0
   -5.0013  -10.3125    0.0000 C   0  0  0  0  0  0  0  0  0  0  0  0
   -5.7158   -9.9000    0.0000 C   0  0  0  0  0  0  0  0  0  0  0  0
   -6.4302  -10.3125    0.0000 F   0  0  0  0  0  0  0  0  0  0  0  0
   -5.7158   -9.0750    0.0000 C   0  0  0  0  0  0  0  0  0  0  0  0
   -6.4302   -8.6625    0.0000 F   0  0  0  0  0  0  0  0  0  0  0  0
   -5.0013   -8.6625    0.0000 C   0  0  0  0  0  0  0  0  0  0  0  0
  1  2  1  0  0  0  0
  2  3  1  0  0  0  0
  2 33  1  0  0  0  0
  3  4  1  0  0  0  0
  4  5  1  0  0  0  0
  5  6  2  0  0  0  0
  5 32  1  0  0  0  0
  6  7  1  0  0  0  0
  7  8  2  0  0  0  0
  8  9  1  0  0  0  0
  8 31  1  0  0  0  0
  9 10  1  0  0  0  0
 10 11  2  0  0  0  0
 10 12  1  0  0  0  0
 12 13  2  0  0  0  0
 12 17  1  0  0  0  0
 13 14  1  0  0  0  0
 14 15  2  0  0  0  0
 15 16  1  0  0  0  0
 16 17  2  0  0  0  0
 17 18  1  0  0  0  0
 18 19  1  0  0  0  0
 19 20  2  0  0  0  0
 19 21  1  0  0  0  0
 21 22  2  0  0  0  0
 21 30  1  0  0  0  0
 22 23  1  0  0  0  0
 23 24  2  0  0  0  0
 24 25  1  0  0  0  0
 24 29  1  0  0  0  0
 25 26  2  0  0  0  0
 26 27  1  0  0  0  0
 27 28  2  0  0  0  0
 28 29  1  0  0  0  0
 29 30  2  0  0  0  0
 31 32  2  0  0  0  0
 33 34  1  0  0  0  0
 34 35  2  0  0  0  0
 34 41  1  0  0  0  0
 35 36  1  0  0  0  0
 36 37  2  0  0  0  0
 37 38  1  0  0  0  0
 37 39  1  0  0  0  0
 39 40  1  0  0  0  0
 39 41  2  0  0  0  0
M  END
$$$$

 OpenBabel12191814062D

 33 37  0  0  0  0  0  0  0  0999 V2000
    0.7145   -2.8875    0.0000 C   0  0  0  0  0  0  0  0  0  0  0  0
    1.4289   -2.4750    0.0000 N   0  0  0  0  0  0  0  0  0  0  0  0
    2.1434   -2.8875    0.0000 C   0  0  0  0  0  0  0  0  0  0  0  0
    2.8579   -2.4750    0.0000 C   0  0  0  0  0  0  0  0  0  0  0  0
    3.5724   -2.8875    0.0000 O   0  0  0  0  0  0  0  0  0  0  0  0
    1.4289   -1.6500    0.0000 C   0  0  0  0  0  0  0  0  0  0  0  0
    0.7145   -1.2375    0.0000 N   0  0  0  0  0  0  0  0  0  0  0  0
    0.7145   -0.4125    0.0000 C   0  0  0  0  0  0  0  0  0  0  0  0
    1.4289    0.0000    0.0000 N   0  0  0  0  0  0  0  0  0  0  0  0
    2.1434   -0.4125    0.0000 C   0  0  0  0  0  0  0  0  0  0  0  0
    2.8579    0.0000    0.0000 N   0  0  0  0  0  0  0  0  0  0  0  0
    3.5724   -0.4125    0.0000 C   0  0  0  0  0  0  0  0  0  0  0  0
    4.2868   -0.0000    0.0000 N   0  0  0  0  0  0  0  0  0  0  0  0
    4.2868    0.8250    0.0000 C   0  0  0  0  0  0  0  0  0  0  0  0
    5.0013    1.2375    0.0000 C   0  0  0  0  0  0  0  0  0  0  0  0
    5.7158    0.8250    0.0000 O   0  0  0  0  0  0  0  0  0  0  0  0
    5.7158   -0.0000    0.0000 C   0  0  0  0  0  0  0  0  0  0  0  0
    5.0013   -0.4125    0.0000 C   0  0  0  0  0  0  0  0  0  0  0  0
    3.5724   -1.2375    0.0000 C   0  0  0  0  0  0  0  0  0  0  0  0
    2.8579   -1.6500    0.0000 N   0  0  0  0  0  0  0  0  0  0  0  0
    2.1434   -1.2375    0.0000 C   0  0  0  0  0  0  0  0  0  0  0  0
    4.2868   -1.6500    0.0000 C   0  0  0  0  0  0  0  0  0  0  0  0
    5.0013   -1.2375    0.0000 C   0  0  0  0  0  0  0  0  0  0  0  0
    5.7158   -1.6500    0.0000 C   0  0  0  0  0  0  0  0  0  0  0  0
    5.7158   -2.4750    0.0000 C   0  0  0  0  0  0  0  0  0  0  0  0
    5.0013   -2.8875    0.0000 C   0  0  0  0  0  0  0  0  0  0  0  0
    4.2868   -2.4750    0.0000 C   0  0  0  0  0  0  0  0  0  0  0  0
    0.0000    0.0000    0.0000 N   0  0  0  0  0  0  0  0  0  0  0  0
   -0.7145   -0.4125    0.0000 C   0  0  0  0  0  0  0  0  0  0  0  0
   -1.4289    0.0000    0.0000 C   0  0  0  0  0  0  0  0  0  0  0  0
   -1.4289    0.8250    0.0000 O   0  0  0  0  0  0  0  0  0  0  0  0
   -0.7145    1.2375    0.0000 C   0  0  0  0  0  0  0  0  0  0  0  0
    0.0000    0.8250    0.0000 C   0  0  0  0  0  0  0  0  0  0  0  0
  1  2  1  0  0  0  0
  2  3  1  0  0  0  0
  2  6  1  0  0  0  0
  3  4  1  0  0  0  0
  4  5  1  0  0  0  0
  6  7  2  0  0  0  0
  6 21  1  0  0  0  0
  7  8  1  0  0  0  0
  8  9  2  0  0  0  0
  8 28  1  0  0  0  0
  9 10  1  0  0  0  0
 10 11  2  0  0  0  0
 10 21  1  0  0  0  0
 11 12  1  0  0  0  0
 12 13  1  0  0  0  0
 12 19  2  0  0  0  0
 13 14  1  0  0  0  0
 13 18  1  0  0  0  0
 14 15  1  0  0  0  0
 15 16  1  0  0  0  0
 16 17  1  0  0  0  0
 17 18  1  0  0  0  0
 19 20  1  0  0  0  0
 19 22  1  0  0  0  0
 20 21  2  0  0  0  0
 22 23  2  0  0  0  0
 22 27  1  0  0  0  0
 23 24  1  0  0  0  0
 24 25  2  0  0  0  0
 25 26  1  0  0  0  0
 26 27  2  0  0  0  0
 28 29  1  0  0  0  0
 28 33  1  0  0  0  0
 29 30  1  0  0  0  0
 30 31  1  0  0  0  0
 31 32  1  0  0  0  0
 32 33  1  0  0  0  0
M  END
$$$$

 OpenBabel12191814062D

 37 41  0  0  0  0  0  0  0  0999 V2000
   -0.7145   -8.6625    0.0000 C   0  0  0  0  0  0  0  0  0  0  0  0
    0.0000   -9.0750    0.0000 N   0  0  0  0  0  0  0  0  0  0  0  0
    0.7145   -8.6625    0.0000 C   0  0  0  0  0  0  0  0  0  0  0  0
    0.7145   -7.8375    0.0000 C   0  0  0  0  0  0  0  0  0  0  0  0
    1.4289   -7.4250    0.0000 O   0  0  0  0  0  0  0  0  0  0  0  0
    1.4289   -6.6000    0.0000 C   0  0  0  0  0  0  0  0  0  0  0  0
    0.7145   -6.1875    0.0000 C   0  0  0  0  0  0  0  0  0  0  0  0
    0.7145   -5.3625    0.0000 C   0  0  0  0  0  0  0  0  0  0  0  0
    1.4289   -4.9500    0.0000 C   0  0  0  0  0  0  0  0  0  0  0  0
    1.4289   -4.1250    0.0000 N   0  0  0  0  0  0  0  0  0  0  0  0
    2.1434   -3.7125    0.0000 C   0  0  0  0  0  0  0  0  0  0  0  0
    2.8579   -4.1250    0.0000 O   0  0  0  0  0  0  0  0  0  0  0  0
    2.1434   -2.8875    0.0000 C   0  0  0  0  0  0  0  0  0  0  0  0
    1.4289   -2.4750    0.0000 C   0  0  0  0  0  0  0  0  0  0  0  0
    1.4289   -1.6500    0.0000 C   0  0  0  0  0  0  0  0  0  0  0  0
    2.1434   -1.2375    0.0000 C   0  0  0  0  0  0  0  0  0  0  0  0
    2.8579   -1.6500    0.0000 C   0  0  0  0  0  0  0  0  0  0  0  0
    3.5724   -1.2375    0.0000 C   0  0  0  0  0  0  0  0  0  0  0  0
    3.5724   -0.4125    0.0000 O   0  0  0  0  0  0  0  0  0  0  0  0
    4.2868   -1.6500    0.0000 C   0  0  0  0  0  0  0  0  0  0  0  0
    5.0013   -1.2375    0.0000 C   0  0  0  0  0  0  0  0  0  0  0  0
    5.7158   -1.6500    0.0000 C   0  0  0  0  0  0  0  0  0  0  0  0
    5.7158   -2.4750    0.0000 C   0  0  0  0  0  0  0  0  0  0  0  0
    5.0013   -2.8875    0.0000 C   0  0  0  0  0  0  0  0  0  0  0  0
    4.2868   -2.4750    0.0000 C   0  0  0  0  0  0  0  0  0  0  0  0
    3.5724   -2.8875    0.0000 N   0  0  0  0  0  0  0  0  0  0  0  0
    2.8579   -2.4750    0.0000 C   0  0  0  0  0  0  0  0  0  0  0  0
    2.1434   -5.3625    0.0000 C   0  0  0  0  0  0  0  0  0  0  0  0
    2.1434   -6.1875    0.0000 C   0  0  0  0  0  0  0  0  0  0  0  0
    0.0000   -9.9000    0.0000 C   0  0  0  0  0  0  0  0  0  0  0  0
   -0.7145  -10.3125    0.0000 C   0  0  0  0  0  0  0  0  0  0  0  0
   -0.7145  -11.1375    0.0000 C   0  0  0  0  0  0  0  0  0  0  0  0
   -1.4289  -11.5500    0.0000 C   0  0  0  0  0  0  0  0  0  0  0  0
   -2.1434  -11.1375    0.0000 C   0  0  0  0  0  0  0  0  0  0  0  0
   -2.8579  -11.5500    0.0000 C   0  0  0  0  0  0  0  0  0  0  0  0
   -2.1434  -10.3125    0.0000 C   0  0  0  0  0  0  0  0  0  0  0  0
   -1.4289   -9.9000    0.0000 C   0  0  0  0  0  0  0  0  0  0  0  0
  1  2  1  0  0  0  0
  2  3  1  0  0  0  0
  2 30  1  0  0  0  0
  3  4  1  0  0  0  0
  4  5  1  0  0  0  0
  5  6  1  0  0  0  0
  6  7  2  0  0  0  0
  6 29  1  0  0  0  0
  7  8  1  0  0  0  0
  8  9  2  0  0  0  0
  9 10  1  0  0  0  0
  9 28  1  0  0  0  0
 10 11  1  0  0  0  0
 11 12  2  0  0  0  0
 11 13  1  0  0  0  0
 13 14  2  0  0  0  0
 13 27  1  0  0  0  0
 14 15  1  0  0  0  0
 15 16  2  0  0  0  0
 16 17  1  0  0  0  0
 17 18  1  0  0  0  0
 17 27  2  0  0  0  0
 18 19  2  0  0  0  0
 18 20  1  0  0  0  0
 20 21  2  0  0  0  0
 20 25  1  0  0  0  0
 21 22  1  0  0  0  0
 22 23  2  0  0  0  0
 23 24  1  0  0  0  0
 24 25  2  0  0  0  0
 25 26  1  0  0  0  0
 26 27  1  0  0  0  0
 28 29  2  0  0  0  0
 30 31  1  0  0  0  0
 31 32  2  0  0  0  0
 31 37  1  0  0  0  0
 32 33  1  0  0  0  0
 33 34  2  0  0  0  0
 34 35  1  0  0  0  0
 34 36  1  0  0  0  0
 36 37  2  0  0  0  0
M  END
$$$$

 OpenBabel12191814062D

 14 15  0  0  0  0  0  0  0  0999 V2000
    2.7845    0.6979    0.0000 C   0  0  0  0  0  0  0  0  0  0  0  0
    2.0701    1.1104    0.0000 N   0  0  0  0  0  0  0  0  0  0  0  0
    1.3556    0.6979    0.0000 C   0  0  0  0  0  0  0  0  0  0  0  0
    1.3556   -0.1271    0.0000 O   0  0  0  0  0  0  0  0  0  0  0  0
    0.6411    1.1104    0.0000 C   0  0  0  0  0  0  0  0  0  0  0  0
   -0.1435    0.8555    0.0000 N   0  0  0  0  0  0  0  0  0  0  0  0
   -0.6284    1.5229    0.0000 C   0  0  0  0  0  0  0  0  0  0  0  0
   -1.4534    1.5229    0.0000 Cl  0  0  0  0  0  0  0  0  0  0  0  0
   -0.1435    2.1904    0.0000 N   0  0  0  0  0  0  0  0  0  0  0  0
    0.6411    1.9354    0.0000 C   0  0  0  0  0  0  0  0  0  0  0  0
    1.3556    2.3479    0.0000 N   0  0  0  0  0  0  0  0  0  0  0  0
    1.3556    3.1729    0.0000 C   0  0  0  0  0  0  0  0  0  0  0  0
    2.0701    1.9354    0.0000 C   0  0  0  0  0  0  0  0  0  0  0  0
    2.7845    2.3479    0.0000 O   0  0  0  0  0  0  0  0  0  0  0  0
  1  2  1  0  0  0  0
  2  3  1  0  0  0  0
  2 13  1  0  0  0  0
  3  4  1  0  0  0  0
  3  5  2  0  0  0  0
  5  6  1  0  0  0  0
  5 10  1  0  0  0  0
  6  7  2  0  0  0  0
  7  8  1  0  0  0  0
  7  9  1  0  0  0  0
  9 10  2  0  0  0  0
 10 11  1  0  0  0  0
 11 12  1  0  0  0  0
 11 13  1  0  0  0  0
 13 14  2  0  0  0  0
M  END
$$$$

 OpenBabel12191814062D

 23 26  0  0  0  0  0  0  0  0999 V2000
    2.1787   -0.2550    0.0000 C   0  0  0  0  0  0  0  0  0  0  0  0
    1.3941   -0.0001    0.0000 N   0  0  0  0  0  0  0  0  0  0  0  0
    1.1624    0.9268    0.0000 C   0  0  3  0  0  0  0  0  0  0  0  0
    0.5174    0.4124    0.0000 C   0  0  0  0  0  0  0  0  0  0  0  0
    0.5174   -0.4126    0.0000 C   0  0  0  0  0  0  0  0  0  0  0  0
    1.1624   -0.9270    0.0000 C   0  0  3  0  0  0  0  0  0  0  0  0
    1.9667   -0.7434    0.0000 C   0  0  0  0  0  0  0  0  0  0  0  0
    2.3247   -0.0001    0.0000 C   0  0  3  0  0  0  0  0  0  0  0  0
    1.9667    0.7432    0.0000 C   0  0  0  0  0  0  0  0  0  0  0  0
    3.1497   -0.0001    0.0000 O   0  0  0  0  0  0  0  0  0  0  0  0
    3.5622   -0.7146    0.0000 C   0  0  0  0  0  0  0  0  0  0  0  0
    3.1497   -1.4290    0.0000 C   0  0  0  0  0  0  0  0  0  0  0  0
    3.5622   -2.1435    0.0000 C   0  0  0  0  0  0  0  0  0  0  0  0
    3.1497   -2.8580    0.0000 C   0  0  0  0  0  0  0  0  0  0  0  0
    2.3247   -2.8580    0.0000 C   0  0  0  0  0  0  0  0  0  0  0  0
    1.9122   -2.1435    0.0000 C   0  0  0  0  0  0  0  0  0  0  0  0
    2.3247   -1.4290    0.0000 C   0  0  0  0  0  0  0  0  0  0  0  0
    4.3872   -0.7146    0.0000 C   0  0  0  0  0  0  0  0  0  0  0  0
    4.7997   -0.0001    0.0000 C   0  0  0  0  0  0  0  0  0  0  0  0
    5.6247   -0.0001    0.0000 C   0  0  0  0  0  0  0  0  0  0  0  0
    6.0372   -0.7146    0.0000 C   0  0  0  0  0  0  0  0  0  0  0  0
    5.6247   -1.4290    0.0000 C   0  0  0  0  0  0  0  0  0  0  0  0
    4.7997   -1.4290    0.0000 C   0  0  0  0  0  0  0  0  0  0  0  0
  1  2  1  0  0  0  0
  2  3  1  0  0  0  0
  2  6  1  0  0  0  0
  3  4  1  0  0  0  0
  3  9  1  0  0  0  0
  4  5  1  0  0  0  0
  5  6  1  0  0  0  0
  6  7  1  0  0  0  0
  7  8  1  0  0  0  0
  8  9  1  0  0  0  0
  8 10  1  0  0  0  0
 10 11  1  0  0  0  0
 11 12  1  0  0  0  0
 11 18  1  0  0  0  0
 12 13  2  0  0  0  0
 12 17  1  0  0  0  0
 13 14  1  0  0  0  0
 14 15  2  0  0  0  0
 15 16  1  0  0  0  0
 16 17  2  0  0  0  0
 18 19  2  0  0  0  0
 18 23  1  0  0  0  0
 19 20  1  0  0  0  0
 20 21  2  0  0  0  0
 21 22  1  0  0  0  0
 22 23  2  0  0  0  0
M  END
$$$$

 OpenBabel12191814062D

 25 29  0  0  0  0  0  0  0  0999 V2000
    4.5170    1.8632    0.0000 C   0  0  0  0  0  0  0  0  0  0  0  0
    5.3240    2.0348    0.0000 N   0  0  0  0  0  0  0  0  0  0  0  0
    5.9881    1.3479    0.0000 C   0  0  3  0  0  0  0  0  0  0  0  0
    6.2895    2.1159    0.0000 C   0  0  0  0  0  0  0  0  0  0  0  0
    5.8770    2.8304    0.0000 C   0  0  0  0  0  0  0  0  0  0  0  0
    5.0613    2.9533    0.0000 C   0  0  3  0  0  0  0  0  0  0  0  0
    4.4565    2.3922    0.0000 C   0  0  0  0  0  0  0  0  0  0  0  0
    4.5181    1.5695    0.0000 C   0  0  3  0  0  0  0  0  0  0  0  0
    5.1998    1.1047    0.0000 C   0  0  0  0  0  0  0  0  0  0  0  0
    3.8037    1.1570    0.0000 O   0  0  0  0  0  0  0  0  0  0  0  0
    3.8037    0.3320    0.0000 C   0  0  3  0  0  0  0  0  0  0  0  0
    4.5470   -0.0260    0.0000 C   0  0  0  0  0  0  0  0  0  0  0  0
    5.1517    0.5352    0.0000 C   0  0  0  0  0  0  0  0  0  0  0  0
    5.9401    0.2920    0.0000 C   0  0  0  0  0  0  0  0  0  0  0  0
    6.1237   -0.5123    0.0000 C   0  0  0  0  0  0  0  0  0  0  0  0
    5.5189   -1.0735    0.0000 C   0  0  0  0  0  0  0  0  0  0  0  0
    4.7305   -0.8303    0.0000 C   0  0  0  0  0  0  0  0  0  0  0  0
    4.2162   -1.4753    0.0000 C   0  0  0  0  0  0  0  0  0  0  0  0
    3.3912   -1.4753    0.0000 C   0  0  0  0  0  0  0  0  0  0  0  0
    2.8768   -0.8303    0.0000 C   0  0  0  0  0  0  0  0  0  0  0  0
    2.0884   -1.0735    0.0000 N   0  0  0  0  0  0  0  0  0  0  0  0
    1.4837   -0.5123    0.0000 C   0  0  0  0  0  0  0  0  0  0  0  0
    1.6673    0.2920    0.0000 C   0  0  0  0  0  0  0  0  0  0  0  0
    2.4556    0.5352    0.0000 C   0  0  0  0  0  0  0  0  0  0  0  0
    3.0604   -0.0260    0.0000 C   0  0  0  0  0  0  0  0  0  0  0  0
  1  2  1  0  0  0  0
  2  3  1  0  0  0  0
  2  6  1  0  0  0  0
  3  4  1  0  0  0  0
  3  9  1  0  0  0  0
  4  5  1  0  0  0  0
  5  6  1  0  0  0  0
  6  7  1  0  0  0  0
  7  8  1  0  0  0  0
  8  9  1  0  0  0  0
  8 10  1  0  0  0  0
 10 11  1  0  0  0  0
 11 12  1  0  0  0  0
 11 25  1  0  0  0  0
 12 13  2  0  0  0  0
 12 17  1  0  0  0  0
 13 14  1  0  0  0  0
 14 15  2  0  0  0  0
 15 16  1  0  0  0  0
 16 17  2  0  0  0  0
 17 18  1  0  0  0  0
 18 19  2  0  0  0  0
 19 20  1  0  0  0  0
 20 21  2  0  0  0  0
 20 25  1  0  0  0  0
 21 22  1  0  0  0  0
 22 23  2  0  0  0  0
 23 24  1  0  0  0  0
 24 25  2  0  0  0  0
M  END
$$$$

 OpenBabel12191814062D

 41 45  0  0  0  0  0  0  0  0999 V2000
    4.5741    3.0436    0.0000 C   0  0  0  0  0  0  0  0  0  0  0  0
    4.2162    2.3003    0.0000 N   0  0  0  0  0  0  0  0  0  0  0  0
    4.7305    1.6553    0.0000 C   0  0  0  0  0  0  0  0  0  0  0  0
    5.5189    1.8985    0.0000 C   0  0  0  0  0  0  0  0  0  0  0  0
    6.1237    1.3373    0.0000 C   0  0  0  0  0  0  0  0  0  0  0  0
    5.9401    0.5330    0.0000 C   0  0  0  0  0  0  0  0  0  0  0  0
    5.1517    0.2898    0.0000 C   0  0  0  0  0  0  0  0  0  0  0  0
    4.5470    0.8510    0.0000 C   0  0  0  0  0  0  0  0  0  0  0  0
    3.8037    0.4930    0.0000 C   0  0  3  0  0  0  0  0  0  0  0  0
    3.8037   -0.3320    0.0000 C   0  0  0  0  0  0  0  0  0  0  0  0
    4.5181   -0.7445    0.0000 N   0  0  0  0  0  0  0  0  0  0  0  0
    4.5181   -1.5695    0.0000 C   0  0  0  0  0  0  0  0  0  0  0  0
    5.2326   -1.9820    0.0000 C   0  0  0  0  0  0  0  0  0  0  0  0
    5.2326   -2.8070    0.0000 C   0  0  0  0  0  0  0  0  0  0  0  0
    4.5181   -3.2195    0.0000 N   0  0  0  0  0  0  0  0  0  0  0  0
    3.8037   -2.8070    0.0000 C   0  0  0  0  0  0  0  0  0  0  0  0
    3.8037   -1.9820    0.0000 C   0  0  0  0  0  0  0  0  0  0  0  0
    4.5181   -4.0445    0.0000 C   0  0  0  0  0  0  0  0  0  0  0  0
    5.2326   -4.4570    0.0000 N   0  0  0  0  0  0  0  0  0  0  0  0
    5.2326   -5.2820    0.0000 C   0  0  0  0  0  0  0  0  0  0  0  0
    5.9471   -5.6945    0.0000 N   0  0  0  0  0  0  0  0  0  0  0  0
    5.9471   -6.5195    0.0000 C   0  0  0  0  0  0  0  0  0  0  0  0
    6.6616   -6.9320    0.0000 C   0  0  0  0  0  0  0  0  0  0  0  0
    6.6616   -7.7570    0.0000 C   0  0  0  0  0  0  0  0  0  0  0  0
    4.5181   -5.6945    0.0000 N   0  0  0  0  0  0  0  0  0  0  0  0
    3.8037   -5.2820    0.0000 C   0  0  0  0  0  0  0  0  0  0  0  0
    3.0892   -5.6945    0.0000 N   0  0  0  0  0  0  0  0  0  0  0  0
    2.3747   -5.2820    0.0000 C   0  0  0  0  0  0  0  0  0  0  0  0
    1.6603   -5.6945    0.0000 C   0  0  0  0  0  0  0  0  0  0  0  0
    0.9458   -5.2820    0.0000 C   0  0  0  0  0  0  0  0  0  0  0  0
    3.8037   -4.4570    0.0000 N   0  0  0  0  0  0  0  0  0  0  0  0
    3.0604    0.8510    0.0000 C   0  0  0  0  0  0  0  0  0  0  0  0
    2.4556    0.2898    0.0000 C   0  0  0  0  0  0  0  0  0  0  0  0
    1.6673    0.5330    0.0000 C   0  0  0  0  0  0  0  0  0  0  0  0
    1.4837    1.3373    0.0000 C   0  0  0  0  0  0  0  0  0  0  0  0
    0.6953    1.5805    0.0000 Cl  0  0  0  0  0  0  0  0  0  0  0  0
    2.0884    1.8985    0.0000 C   0  0  0  0  0  0  0  0  0  0  0  0
    2.8768    1.6553    0.0000 C   0  0  0  0  0  0  0  0  0  0  0  0
    3.3912    2.3003    0.0000 S   0  0  0  0  0  0  0  0  0  0  0  0
    2.7348    2.8001    0.0000 O   0  0  0  0  0  0  0  0  0  0  0  0
    3.4097    3.1251    0.0000 O   0  0  0  0  0  0  0  0  0  0  0  0
  1  2  1  0  0  0  0
  2  3  1  0  0  0  0
  2 39  1  0  0  0  0
  3  4  2  0  0  0  0
  3  8  1  0  0  0  0
  4  5  1  0  0  0  0
  5  6  2  0  0  0  0
  6  7  1  0  0  0  0
  7  8  2  0  0  0  0
  8  9  1  0  0  0  0
  9 10  1  0  0  0  0
  9 32  1  0  0  0  0
 10 11  1  0  0  0  0
 11 12  1  0  0  0  0
 12 13  1  0  0  0  0
 12 17  1  0  0  0  0
 13 14  1  0  0  0  0
 14 15  1  0  0  0  0
 15 16  1  0  0  0  0
 15 18  1  0  0  0  0
 16 17  1  0  0  0  0
 18 19  2  0  0  0  0
 18 31  1  0  0  0  0
 19 20  1  0  0  0  0
 20 21  1  0  0  0  0
 20 25  2  0  0  0  0
 21 22  1  0  0  0  0
 22 23  1  0  0  0  0
 23 24  2  0  0  0  0
 25 26  1  0  0  0  0
 26 27  1  0  0  0  0
 26 31  2  0  0  0  0
 27 28  1  0  0  0  0
 28 29  1  0  0  0  0
 29 30  2  0  0  0  0
 32 33  2  0  0  0  0
 32 38  1  0  0  0  0
 33 34  1  0  0  0  0
 34 35  2  0  0  0  0
 35 36  1  0  0  0  0
 35 37  1  0  0  0  0
 37 38  2  0  0  0  0
 38 39  1  0  0  0  0
 39 40  2  0  0  0  0
 39 41  2  0  0  0  0
M  END
$$$$

 OpenBabel12191814062D

 43 50  0  0  0  0  0  0  0  0999 V2000
    3.2789   -1.2375    0.0000 C   0  0  0  0  0  0  0  0  0  0  0  0
    3.2789   -0.4125    0.0000 N   0  0  0  0  0  0  0  0  0  0  0  0
    3.9934    0.0000    0.0000 C   0  0  0  0  0  0  0  0  0  0  0  0
    3.9934    0.8250    0.0000 C   0  0  3  0  0  0  0  0  0  0  0  0
    3.2789    1.2375    0.0000 C   0  0  0  0  0  0  0  0  0  0  0  0
    2.5645    0.8250    0.0000 C   0  0  0  0  0  0  0  0  0  0  0  0
    2.5645    0.0000    0.0000 C   0  0  3  0  0  0  0  0  0  0  0  0
    1.8500   -0.4125    0.0000 C   0  0  0  0  0  0  0  0  0  0  0  0
    1.1355   -0.0000    0.0000 C   0  0  0  0  0  0  0  0  0  0  0  0
    0.3509   -0.2549    0.0000 C   0  0  0  0  0  0  0  0  0  0  0  0
   -0.1340    0.4125    0.0000 N   0  0  0  0  0  0  0  0  0  0  0  0
    0.3509    1.0799    0.0000 C   0  0  0  0  0  0  0  0  0  0  0  0
    0.1794    1.8869    0.0000 C   0  0  0  0  0  0  0  0  0  0  0  0
    0.7925    2.4389    0.0000 C   0  0  0  0  0  0  0  0  0  0  0  0
    1.5771    2.1840    0.0000 C   0  0  0  0  0  0  0  0  0  0  0  0
    1.8500    1.2375    0.0000 C   0  0  0  0  0  0  0  0  0  0  0  0
    1.1355    0.8250    0.0000 C   0  0  0  0  0  0  0  0  0  0  0  0
    4.7079    1.2375    0.0000 C   0  0  0  0  0  0  0  0  0  0  0  0
    5.4223    0.8250    0.0000 O   0  0  0  0  0  0  0  0  0  0  0  0
    4.7079    2.0625    0.0000 N   0  0  0  0  0  0  0  0  0  0  0  0
    5.4223    2.4750    0.0000 C   0  0  3  0  0  0  0  0  0  0  0  0
    5.7579    1.7213    0.0000 C   0  0  0  0  0  0  0  0  0  0  0  0
    4.9374    3.1424    0.0000 O   0  0  0  0  0  0  0  0  0  0  0  0
    5.4223    3.8099    0.0000 C   0  0  3  0  0  0  0  0  0  0  0  0
    4.6154    3.9814    0.0000 O   0  0  0  0  0  0  0  0  0  0  0  0
    5.2508    4.6168    0.0000 C   0  0  3  0  0  0  0  0  0  0  0  0
    4.5363    5.0293    0.0000 C   0  0  0  0  0  0  0  0  0  0  0  0
    4.7079    5.8363    0.0000 C   0  0  0  0  0  0  0  0  0  0  0  0
    5.5284    5.9226    0.0000 C   0  0  0  0  0  0  0  0  0  0  0  0
    5.8639    5.1689    0.0000 N   0  0  0  0  0  0  0  0  0  0  0  0
    6.6485    4.9139    0.0000 C   0  0  0  0  0  0  0  0  0  0  0  0
    7.2616    5.4660    0.0000 O   0  0  0  0  0  0  0  0  0  0  0  0
    6.8201    4.1070    0.0000 C   0  0  3  0  0  0  0  0  0  0  0  0
    7.6047    3.8520    0.0000 C   0  0  0  0  0  0  0  0  0  0  0  0
    8.2178    4.4041    0.0000 C   0  0  0  0  0  0  0  0  0  0  0  0
    8.0462    5.2110    0.0000 C   0  0  0  0  0  0  0  0  0  0  0  0
    8.6593    5.7631    0.0000 C   0  0  0  0  0  0  0  0  0  0  0  0
    9.4440    5.5081    0.0000 C   0  0  0  0  0  0  0  0  0  0  0  0
    9.6155    4.7012    0.0000 C   0  0  0  0  0  0  0  0  0  0  0  0
    9.0024    4.1491    0.0000 C   0  0  0  0  0  0  0  0  0  0  0  0
    6.2070    3.5549    0.0000 N   0  0  0  0  0  0  0  0  0  0  0  0
    6.2070    2.7299    0.0000 C   0  0  0  0  0  0  0  0  0  0  0  0
    6.8744    2.2450    0.0000 O   0  0  0  0  0  0  0  0  0  0  0  0
  1  2  1  0  0  0  0
  2  3  1  0  0  0  0
  2  7  1  0  0  0  0
  3  4  1  0  0  0  0
  4  5  1  0  0  0  0
  4 18  1  0  0  0  0
  5  6  2  0  0  0  0
  6  7  1  0  0  0  0
  6 16  1  0  0  0  0
  7  8  1  0  0  0  0
  8  9  1  0  0  0  0
  9 10  2  0  0  0  0
  9 17  1  0  0  0  0
 10 11  1  0  0  0  0
 11 12  1  0  0  0  0
 12 13  2  0  0  0  0
 12 17  1  0  0  0  0
 13 14  1  0  0  0  0
 14 15  2  0  0  0  0
 15 16  1  0  0  0  0
 16 17  2  0  0  0  0
 18 19  2  0  0  0  0
 18 20  1  0  0  0  0
 20 21  1  0  0  0  0
 21 22  1  0  0  0  0
 21 23  1  0  0  0  0
 21 42  1  0  0  0  0
 23 24  1  0  0  0  0
 24 25  1  0  0  0  0
 24 26  1  0  0  0  0
 24 41  1  0  0  0  0
 26 27  1  0  0  0  0
 26 30  1  0  0  0  0
 27 28  1  0  0  0  0
 28 29  1  0  0  0  0
 29 30  1  0  0  0  0
 30 31  1  0  0  0  0
 31 32  2  0  0  0  0
 31 33  1  0  0  0  0
 33 34  1  0  0  0  0
 33 41  1  0  0  0  0
 34 35  1  0  0  0  0
 35 36  2  0  0  0  0
 35 40  1  0  0  0  0
 36 37  1  0  0  0  0
 37 38  2  0  0  0  0
 38 39  1  0  0  0  0
 39 40  2  0  0  0  0
 41 42  1  0  0  0  0
 42 43  2  0  0  0  0
M  END
$$$$

 OpenBabel12191814062D

 30 34  0  0  0  0  0  0  0  0999 V2000
    3.2789   -1.2375    0.0000 C   0  0  0  0  0  0  0  0  0  0  0  0
    3.2789   -0.4125    0.0000 N   0  0  0  0  0  0  0  0  0  0  0  0
    3.9934    0.0000    0.0000 C   0  0  0  0  0  0  0  0  0  0  0  0
    3.9934    0.8250    0.0000 C   0  0  3  0  0  0  0  0  0  0  0  0
    4.7079    1.2375    0.0000 C   0  0  0  0  0  0  0  0  0  0  0  0
    5.4223    0.8250    0.0000 N   0  0  0  0  0  0  0  0  0  0  0  0
    6.1368    1.2375    0.0000 C   0  0  0  0  0  0  0  0  0  0  0  0
    6.1368    2.0625    0.0000 O   0  0  0  0  0  0  0  0  0  0  0  0
    6.8513    0.8250    0.0000 O   0  0  0  0  0  0  0  0  0  0  0  0
    7.5658    1.2375    0.0000 C   0  0  0  0  0  0  0  0  0  0  0  0
    8.2802    0.8250    0.0000 C   0  0  0  0  0  0  0  0  0  0  0  0
    8.9947    1.2375    0.0000 C   0  0  0  0  0  0  0  0  0  0  0  0
    9.7092    0.8250    0.0000 C   0  0  0  0  0  0  0  0  0  0  0  0
    9.7092    0.0000    0.0000 C   0  0  0  0  0  0  0  0  0  0  0  0
    8.9947   -0.4125    0.0000 C   0  0  0  0  0  0  0  0  0  0  0  0
    8.2802    0.0000    0.0000 C   0  0  0  0  0  0  0  0  0  0  0  0
    3.2789    1.2375    0.0000 C   0  0  0  0  0  0  0  0  0  0  0  0
    2.5645    0.8250    0.0000 C   0  0  3  0  0  0  0  0  0  0  0  0
    2.5645    0.0000    0.0000 C   0  0  3  0  0  0  0  0  0  0  0  0
    1.8500   -0.4125    0.0000 C   0  0  0  0  0  0  0  0  0  0  0  0
    1.1355   -0.0000    0.0000 C   0  0  0  0  0  0  0  0  0  0  0  0
    0.3509   -0.2549    0.0000 C   0  0  0  0  0  0  0  0  0  0  0  0
   -0.1340    0.4125    0.0000 N   0  0  0  0  0  0  0  0  0  0  0  0
   -0.9590    0.4125    0.0000 C   0  0  0  0  0  0  0  0  0  0  0  0
    0.3509    1.0799    0.0000 C   0  0  0  0  0  0  0  0  0  0  0  0
    0.1794    1.8869    0.0000 C   0  0  0  0  0  0  0  0  0  0  0  0
    0.7925    2.4389    0.0000 C   0  0  0  0  0  0  0  0  0  0  0  0
    1.5771    2.1840    0.0000 C   0  0  0  0  0  0  0  0  0  0  0  0
    1.8500    1.2375    0.0000 C   0  0  0  0  0  0  0  0  0  0  0  0
    1.1355    0.8250    0.0000 C   0  0  0  0  0  0  0  0  0  0  0  0
  1  2  1  0  0  0  0
  2  3  1  0  0  0  0
  2 19  1  0  0  0  0
  3  4  1  0  0  0  0
  4  5  1  0  0  0  0
  4 17  1  0  0  0  0
  5  6  1  0  0  0  0
  6  7  1  0  0  0  0
  7  8  2  0  0  0  0
  7  9  1  0  0  0  0
  9 10  1  0  0  0  0
 10 11  1  0  0  0  0
 11 12  2  0  0  0  0
 11 16  1  0  0  0  0
 12 13  1  0  0  0  0
 13 14  2  0  0  0  0
 14 15  1  0  0  0  0
 15 16  2  0  0  0  0
 17 18  1  0  0  0  0
 18 19  1  0  0  0  0
 18 29  1  0  0  0  0
 19 20  1  0  0  0  0
 20 21  1  0  0  0  0
 21 22  2  0  0  0  0
 21 30  1  0  0  0  0
 22 23  1  0  0  0  0
 23 24  1  0  0  0  0
 23 25  1  0  0  0  0
 25 26  2  0  0  0  0
 25 30  1  0  0  0  0
 26 27  1  0  0  0  0
 27 28  2  0  0  0  0
 28 29  1  0  0  0  0
 29 30  2  0  0  0  0
M  END
$$$$

 OpenBabel12191814062D

 19 22  0  0  0  0  0  0  0  0999 V2000
    3.2789   -1.2375    0.0000 C   0  0  0  0  0  0  0  0  0  0  0  0
    3.2789   -0.4125    0.0000 N   0  0  0  0  0  0  0  0  0  0  0  0
    3.9934    0.0000    0.0000 C   0  0  0  0  0  0  0  0  0  0  0  0
    3.9934    0.8250    0.0000 C   0  0  3  0  0  0  0  0  0  0  0  0
    4.7079    1.2375    0.0000 C   0  0  0  0  0  0  0  0  0  0  0  0
    4.7079    2.0625    0.0000 O   0  0  0  0  0  0  0  0  0  0  0  0
    3.2789    1.2375    0.0000 C   0  0  0  0  0  0  0  0  0  0  0  0
    2.5645    0.8250    0.0000 C   0  0  0  0  0  0  0  0  0  0  0  0
    2.5645    0.0000    0.0000 C   0  0  3  0  0  0  0  0  0  0  0  0
    1.8500   -0.4125    0.0000 C   0  0  0  0  0  0  0  0  0  0  0  0
    1.1355   -0.0000    0.0000 C   0  0  0  0  0  0  0  0  0  0  0  0
    0.3509   -0.2549    0.0000 C   0  0  0  0  0  0  0  0  0  0  0  0
   -0.1340    0.4125    0.0000 N   0  0  0  0  0  0  0  0  0  0  0  0
    0.3509    1.0799    0.0000 C   0  0  0  0  0  0  0  0  0  0  0  0
    0.1794    1.8869    0.0000 C   0  0  0  0  0  0  0  0  0  0  0  0
    0.7925    2.4389    0.0000 C   0  0  0  0  0  0  0  0  0  0  0  0
    1.5771    2.1840    0.0000 C   0  0  0  0  0  0  0  0  0  0  0  0
    1.8500    1.2375    0.0000 C   0  0  0  0  0  0  0  0  0  0  0  0
    1.1355    0.8250    0.0000 C   0  0  0  0  0  0  0  0  0  0  0  0
  1  2  1  0  0  0  0
  2  3  1  0  0  0  0
  2  9  1  0  0  0  0
  3  4  1  0  0  0  0
  4  5  1  0  0  0  0
  4  7  1  0  0  0  0
  5  6  1  0  0  0  0
  7  8  2  0  0  0  0
  8  9  1  0  0  0  0
  8 18  1  0  0  0  0
  9 10  1  0  0  0  0
 10 11  1  0  0  0  0
 11 12  2  0  0  0  0
 11 19  1  0  0  0  0
 12 13  1  0  0  0  0
 13 14  1  0  0  0  0
 14 15  2  0  0  0  0
 14 19  1  0  0  0  0
 15 16  1  0  0  0  0
 16 17  2  0  0  0  0
 17 18  1  0  0  0  0
 18 19  2  0  0  0  0
M  END
$$$$

 OpenBabel12191814062D

 24 28  0  0  0  0  0  0  0  0999 V2000
    2.8785    0.6327    0.0000 C   0  0  0  0  0  0  0  0  0  0  0  0
    3.5792    0.1973    0.0000 N   0  0  0  0  0  0  0  0  0  0  0  0
    4.2098    0.7292    0.0000 C   0  0  0  0  0  0  0  0  0  0  0  0
    4.9106    0.2939    0.0000 C   0  0  0  0  0  0  0  0  0  0  0  0
    5.7031    0.5233    0.0000 C   0  0  0  0  0  0  0  0  0  0  0  0
    6.2980   -0.0482    0.0000 C   0  0  0  0  0  0  0  0  0  0  0  0
    6.1005   -0.8492    0.0000 C   0  0  0  0  0  0  0  0  0  0  0  0
    5.4129   -1.0275    0.0000 C   0  0  0  0  0  0  0  0  0  0  0  0
    4.7131   -0.5071    0.0000 C   0  0  0  0  0  0  0  0  0  0  0  0
    3.8903   -0.5668    0.0000 C   0  0  0  0  0  0  0  0  0  0  0  0
    4.3327   -1.2631    0.0000 C   0  0  0  0  0  0  0  0  0  0  0  0
    5.1426   -1.1056    0.0000 C   0  0  0  0  0  0  0  0  0  0  0  0
    5.6839   -1.7282    0.0000 C   0  0  0  0  0  0  0  0  0  0  0  0
    5.4154   -2.5083    0.0000 C   0  0  0  0  0  0  0  0  0  0  0  0
    4.6055   -2.6658    0.0000 C   0  0  0  0  0  0  0  0  0  0  0  0
    4.0642   -2.0432    0.0000 C   0  0  0  0  0  0  0  0  0  0  0  0
    3.2869   -2.3196    0.0000 C   0  0  0  0  0  0  0  0  0  0  0  0
    2.5861   -1.8843    0.0000 C   0  0  0  0  0  0  0  0  0  0  0  0
    2.4896   -1.0649    0.0000 C   0  0  0  0  0  0  0  0  0  0  0  0
    1.6916   -0.8555    0.0000 C   0  0  0  0  0  0  0  0  0  0  0  0
    1.4741   -0.0597    0.0000 C   0  0  0  0  0  0  0  0  0  0  0  0
    2.0544    0.5266    0.0000 C   0  0  0  0  0  0  0  0  0  0  0  0
    2.8524    0.3172    0.0000 C   0  0  0  0  0  0  0  0  0  0  0  0
    3.0700   -0.4786    0.0000 C   0  0  0  0  0  0  0  0  0  0  0  0
  1  2  1  0  0  0  0
  2  3  1  0  0  0  0
  2 10  1  0  0  0  0
  3  4  1  0  0  0  0
  4  5  2  0  0  0  0
  4  9  1  0  0  0  0
  5  6  1  0  0  0  0
  6  7  2  0  0  0  0
  7  8  1  0  0  0  0
  8  9  2  0  0  0  0
  9 10  1  0  0  0  0
 10 11  1  0  0  0  0
 10 24  1  0  0  0  0
 11 12  2  0  0  0  0
 11 16  1  0  0  0  0
 12 13  1  0  0  0  0
 13 14  2  0  0  0  0
 14 15  1  0  0  0  0
 15 16  2  0  0  0  0
 16 17  1  0  0  0  0
 17 18  1  0  0  0  0
 18 19  1  0  0  0  0
 19 20  2  0  0  0  0
 19 24  1  0  0  0  0
 20 21  1  0  0  0  0
 21 22  2  0  0  0  0
 22 23  1  0  0  0  0
 23 24  2  0  0  0  0
M  END
$$$$

 OpenBabel12191814062D

 22 25  0  0  0  0  0  0  0  0999 V2000
    3.8037    3.6320    0.0000 C   0  0  0  0  0  0  0  0  0  0  0  0
    3.8037    2.8070    0.0000 N   0  0  0  0  0  0  0  0  0  0  0  0
    4.5181    2.3945    0.0000 C   0  0  0  0  0  0  0  0  0  0  0  0
    4.5181    1.5695    0.0000 C   0  0  0  0  0  0  0  0  0  0  0  0
    3.8037    1.1570    0.0000 C   0  0  0  0  0  0  0  0  0  0  0  0
    3.0892    1.5695    0.0000 C   0  0  0  0  0  0  0  0  0  0  0  0
    3.0892    2.3945    0.0000 C   0  0  0  0  0  0  0  0  0  0  0  0
    3.8037    0.3320    0.0000 C   0  0  0  0  0  0  0  0  0  0  0  0
    4.5470   -0.0260    0.0000 C   0  0  0  0  0  0  0  0  0  0  0  0
    5.1517    0.5352    0.0000 C   0  0  0  0  0  0  0  0  0  0  0  0
    5.9401    0.2920    0.0000 C   0  0  0  0  0  0  0  0  0  0  0  0
    6.1237   -0.5123    0.0000 C   0  0  0  0  0  0  0  0  0  0  0  0
    5.5189   -1.0735    0.0000 C   0  0  0  0  0  0  0  0  0  0  0  0
    4.7305   -0.8303    0.0000 C   0  0  0  0  0  0  0  0  0  0  0  0
    4.2162   -1.4753    0.0000 C   0  0  0  0  0  0  0  0  0  0  0  0
    3.3912   -1.4753    0.0000 C   0  0  0  0  0  0  0  0  0  0  0  0
    2.8768   -0.8303    0.0000 C   0  0  0  0  0  0  0  0  0  0  0  0
    2.0884   -1.0735    0.0000 C   0  0  0  0  0  0  0  0  0  0  0  0
    1.4837   -0.5123    0.0000 C   0  0  0  0  0  0  0  0  0  0  0  0
    1.6673    0.2920    0.0000 C   0  0  0  0  0  0  0  0  0  0  0  0
    2.4556    0.5352    0.0000 C   0  0  0  0  0  0  0  0  0  0  0  0
    3.0604   -0.0260    0.0000 C   0  0  0  0  0  0  0  0  0  0  0  0
  1  2  1  0  0  0  0
  2  3  1  0  0  0  0
  2  7  1  0  0  0  0
  3  4  1  0  0  0  0
  4  5  1  0  0  0  0
  5  6  1  0  0  0  0
  5  8  2  0  0  0  0
  6  7  1  0  0  0  0
  8  9  1  0  0  0  0
  8 22  1  0  0  0  0
  9 10  2  0  0  0  0
  9 14  1  0  0  0  0
 10 11  1  0  0  0  0
 11 12  2  0  0  0  0
 12 13  1  0  0  0  0
 13 14  2  0  0  0  0
 14 15  1  0  0  0  0
 15 16  2  0  0  0  0
 16 17  1  0  0  0  0
 17 18  2  0  0  0  0
 17 22  1  0  0  0  0
 18 19  1  0  0  0  0
 19 20  2  0  0  0  0
 20 21  1  0  0  0  0
 21 22  2  0  0  0  0
M  END
$$$$

 OpenBabel12191814062D

 22 25  0  0  0  0  0  0  0  0999 V2000
    2.1434    4.5375    0.0000 C   0  0  0  0  0  0  0  0  0  0  0  0
    2.1434    3.7125    0.0000 N   0  0  0  0  0  0  0  0  0  0  0  0
    2.8579    3.3000    0.0000 C   0  0  0  0  0  0  0  0  0  0  0  0
    2.8579    2.4750    0.0000 C   0  0  0  0  0  0  0  0  0  0  0  0
    2.1434    2.0625    0.0000 C   0  0  0  0  0  0  0  0  0  0  0  0
    1.4289    2.4750    0.0000 C   0  0  0  0  0  0  0  0  0  0  0  0
    1.4289    3.3000    0.0000 C   0  0  0  0  0  0  0  0  0  0  0  0
    2.1434    1.2375    0.0000 C   0  0  0  0  0  0  0  0  0  0  0  0
    2.8579    0.8250    0.0000 C   0  0  0  0  0  0  0  0  0  0  0  0
    3.5724    1.2375    0.0000 C   0  0  0  0  0  0  0  0  0  0  0  0
    4.2868    0.8250    0.0000 C   0  0  0  0  0  0  0  0  0  0  0  0
    4.2868   -0.0000    0.0000 C   0  0  0  0  0  0  0  0  0  0  0  0
    3.5724   -0.4125    0.0000 C   0  0  0  0  0  0  0  0  0  0  0  0
    2.8579    0.0000    0.0000 C   0  0  0  0  0  0  0  0  0  0  0  0
    2.1434   -0.4125    0.0000 O   0  0  0  0  0  0  0  0  0  0  0  0
    1.4289    0.0000    0.0000 C   0  0  0  0  0  0  0  0  0  0  0  0
    0.7145   -0.4125    0.0000 C   0  0  0  0  0  0  0  0  0  0  0  0
    0.0000    0.0000    0.0000 C   0  0  0  0  0  0  0  0  0  0  0  0
    0.0000    0.8250    0.0000 C   0  0  0  0  0  0  0  0  0  0  0  0
   -0.7145    1.2375    0.0000 Cl  0  0  0  0  0  0  0  0  0  0  0  0
    0.7145    1.2375    0.0000 C   0  0  0  0  0  0  0  0  0  0  0  0
    1.4289    0.8250    0.0000 C   0  0  0  0  0  0  0  0  0  0  0  0
  1  2  1  0  0  0  0
  2  3  1  0  0  0  0
  2  7  1  0  0  0  0
  3  4  1  0  0  0  0
  4  5  1  0  0  0  0
  5  6  1  0  0  0  0
  5  8  2  0  0  0  0
  6  7  1  0  0  0  0
  8  9  1  0  0  0  0
  8 22  1  0  0  0  0
  9 10  2  0  0  0  0
  9 14  1  0  0  0  0
 10 11  1  0  0  0  0
 11 12  2  0  0  0  0
 12 13  1  0  0  0  0
 13 14  2  0  0  0  0
 14 15  1  0  0  0  0
 15 16  1  0  0  0  0
 16 17  2  0  0  0  0
 16 22  1  0  0  0  0
 17 18  1  0  0  0  0
 18 19  2  0  0  0  0
 19 20  1  0  0  0  0
 19 21  1  0  0  0  0
 21 22  2  0  0  0  0
M  END
$$$$

 OpenBabel12191814062D

 21 24  0  0  0  0  0  0  0  0999 V2000
    2.1434    4.5375    0.0000 C   0  0  0  0  0  0  0  0  0  0  0  0
    2.1434    3.7125    0.0000 N   0  0  0  0  0  0  0  0  0  0  0  0
    2.8579    3.3000    0.0000 C   0  0  0  0  0  0  0  0  0  0  0  0
    2.8579    2.4750    0.0000 C   0  0  0  0  0  0  0  0  0  0  0  0
    2.1434    2.0625    0.0000 C   0  0  0  0  0  0  0  0  0  0  0  0
    1.4289    2.4750    0.0000 C   0  0  0  0  0  0  0  0  0  0  0  0
    1.4289    3.3000    0.0000 C   0  0  0  0  0  0  0  0  0  0  0  0
    2.1434    1.2375    0.0000 C   0  0  0  0  0  0  0  0  0  0  0  0
    2.8579    0.8250    0.0000 C   0  0  0  0  0  0  0  0  0  0  0  0
    3.5724    1.2375    0.0000 C   0  0  0  0  0  0  0  0  0  0  0  0
    4.2868    0.8250    0.0000 C   0  0  0  0  0  0  0  0  0  0  0  0
    4.2868   -0.0000    0.0000 C   0  0  0  0  0  0  0  0  0  0  0  0
    3.5724   -0.4125    0.0000 C   0  0  0  0  0  0  0  0  0  0  0  0
    2.8579    0.0000    0.0000 C   0  0  0  0  0  0  0  0  0  0  0  0
    2.1434   -0.4125    0.0000 S   0  0  0  0  0  0  0  0  0  0  0  0
    1.4289    0.0000    0.0000 C   0  0  0  0  0  0  0  0  0  0  0  0
    0.7145   -0.4125    0.0000 C   0  0  0  0  0  0  0  0  0  0  0  0
    0.0000    0.0000    0.0000 C   0  0  0  0  0  0  0  0  0  0  0  0
    0.0000    0.8250    0.0000 C   0  0  0  0  0  0  0  0  0  0  0  0
    0.7145    1.2375    0.0000 C   0  0  0  0  0  0  0  0  0  0  0  0
    1.4289    0.8250    0.0000 C   0  0  0  0  0  0  0  0  0  0  0  0
  1  2  1  0  0  0  0
  2  3  1  0  0  0  0
  2  7  1  0  0  0  0
  3  4  1  0  0  0  0
  4  5  1  0  0  0  0
  5  6  1  0  0  0  0
  5  8  2  0  0  0  0
  6  7  1  0  0  0  0
  8  9  1  0  0  0  0
  8 21  1  0  0  0  0
  9 10  2  0  0  0  0
  9 14  1  0  0  0  0
 10 11  1  0  0  0  0
 11 12  2  0  0  0  0
 12 13  1  0  0  0  0
 13 14  2  0  0  0  0
 14 15  1  0  0  0  0
 15 16  1  0  0  0  0
 16 17  2  0  0  0  0
 16 21  1  0  0  0  0
 17 18  1  0  0  0  0
 18 19  2  0  0  0  0
 19 20  1  0  0  0  0
 20 21  2  0  0  0  0
M  END
$$$$

 OpenBabel12191814062D

 21 24  0  0  0  0  0  0  0  0999 V2000
    3.7600    3.6489    0.0000 C   0  0  0  0  0  0  0  0  0  0  0  0
    3.7692    2.8239    0.0000 N   0  0  0  0  0  0  0  0  0  0  0  0
    4.4882    2.4194    0.0000 C   0  0  0  0  0  0  0  0  0  0  0  0
    4.4974    1.5945    0.0000 C   0  0  0  0  0  0  0  0  0  0  0  0
    3.7876    1.1740    0.0000 C   0  0  0  0  0  0  0  0  0  0  0  0
    3.0686    1.5785    0.0000 C   0  0  0  0  0  0  0  0  0  0  0  0
    3.0594    2.4034    0.0000 C   0  0  0  0  0  0  0  0  0  0  0  0
    3.7969    0.3491    0.0000 C   0  0  0  0  0  0  0  0  0  0  0  0
    4.5441   -0.0006    0.0000 C   0  0  0  0  0  0  0  0  0  0  0  0
    5.2476    0.4305    0.0000 C   0  0  0  0  0  0  0  0  0  0  0  0
    5.8749   -0.1053    0.0000 C   0  0  0  0  0  0  0  0  0  0  0  0
    5.5591   -0.8675    0.0000 S   0  0  0  0  0  0  0  0  0  0  0  0
    4.7367   -0.8028    0.0000 C   0  0  0  0  0  0  0  0  0  0  0  0
    4.2295   -1.4535    0.0000 C   0  0  0  0  0  0  0  0  0  0  0  0
    3.4046   -1.4627    0.0000 C   0  0  0  0  0  0  0  0  0  0  0  0
    2.8830   -0.8235    0.0000 C   0  0  0  0  0  0  0  0  0  0  0  0
    2.0974   -1.0755    0.0000 C   0  0  0  0  0  0  0  0  0  0  0  0
    1.4864   -0.5211    0.0000 C   0  0  0  0  0  0  0  0  0  0  0  0
    1.6610    0.2852    0.0000 C   0  0  0  0  0  0  0  0  0  0  0  0
    2.4466    0.5372    0.0000 C   0  0  0  0  0  0  0  0  0  0  0  0
    3.0576   -0.0172    0.0000 C   0  0  0  0  0  0  0  0  0  0  0  0
  1  2  1  0  0  0  0
  2  3  1  0  0  0  0
  2  7  1  0  0  0  0
  3  4  1  0  0  0  0
  4  5  1  0  0  0  0
  5  6  1  0  0  0  0
  5  8  2  0  0  0  0
  6  7  1  0  0  0  0
  8  9  1  0  0  0  0
  8 21  1  0  0  0  0
  9 10  1  0  0  0  0
  9 13  2  0  0  0  0
 10 11  2  0  0  0  0
 11 12  1  0  0  0  0
 12 13  1  0  0  0  0
 13 14  1  0  0  0  0
 14 15  1  0  0  0  0
 15 16  1  0  0  0  0
 16 17  2  0  0  0  0
 16 21  1  0  0  0  0
 17 18  1  0  0  0  0
 18 19  2  0  0  0  0
 19 20  1  0  0  0  0
 20 21  2  0  0  0  0
M  END
$$$$

 OpenBabel12191814062D

 26 29  0  0  0  0  0  0  0  0999 V2000
    1.9594    3.9102    0.0000 C   0  0  0  0  0  0  0  0  0  0  0  0
    2.3173    3.1669    0.0000 N   0  0  0  0  0  0  0  0  0  0  0  0
    3.1400    3.1053    0.0000 C   0  0  0  0  0  0  0  0  0  0  0  0
    3.4980    2.3620    0.0000 C   0  0  0  0  0  0  0  0  0  0  0  0
    3.0332    1.6803    0.0000 C   0  0  0  0  0  0  0  0  0  0  0  0
    2.2105    1.7420    0.0000 C   0  0  0  0  0  0  0  0  0  0  0  0
    1.8526    2.4853    0.0000 C   0  0  0  0  0  0  0  0  0  0  0  0
    3.3912    0.9370    0.0000 C   0  0  0  0  0  0  0  0  0  0  0  0
    4.2162    0.9370    0.0000 N   0  0  0  0  0  0  0  0  0  0  0  0
    4.7305    0.2920    0.0000 C   0  0  0  0  0  0  0  0  0  0  0  0
    5.5189    0.5352    0.0000 C   0  0  0  0  0  0  0  0  0  0  0  0
    6.1237   -0.0260    0.0000 C   0  0  0  0  0  0  0  0  0  0  0  0
    6.9120    0.2172    0.0000 Cl  0  0  0  0  0  0  0  0  0  0  0  0
    5.9401   -0.8303    0.0000 C   0  0  0  0  0  0  0  0  0  0  0  0
    5.1517   -1.0735    0.0000 C   0  0  0  0  0  0  0  0  0  0  0  0
    4.5470   -0.5123    0.0000 C   0  0  0  0  0  0  0  0  0  0  0  0
    3.8037   -0.8703    0.0000 C   0  0  3  0  0  0  0  0  0  0  0  0
    3.8037   -1.6953    0.0000 C   0  0  0  0  0  0  0  0  0  0  0  0
    4.5181   -2.1078    0.0000 C   0  0  0  0  0  0  0  0  0  0  0  0
    5.2326   -2.5203    0.0000 N   0  0  0  0  0  0  0  0  0  0  0  0
    3.0604   -0.5123    0.0000 C   0  0  0  0  0  0  0  0  0  0  0  0
    2.4556   -1.0735    0.0000 C   0  0  0  0  0  0  0  0  0  0  0  0
    1.6673   -0.8303    0.0000 C   0  0  0  0  0  0  0  0  0  0  0  0
    1.4837   -0.0260    0.0000 C   0  0  0  0  0  0  0  0  0  0  0  0
    2.0884    0.5352    0.0000 C   0  0  0  0  0  0  0  0  0  0  0  0
    2.8768    0.2920    0.0000 C   0  0  0  0  0  0  0  0  0  0  0  0
  1  2  1  0  0  0  0
  2  3  1  0  0  0  0
  2  7  1  0  0  0  0
  3  4  1  0  0  0  0
  4  5  1  0  0  0  0
  5  6  1  0  0  0  0
  5  8  1  0  0  0  0
  6  7  1  0  0  0  0
  8  9  2  0  0  0  0
  8 26  1  0  0  0  0
  9 10  1  0  0  0  0
 10 11  2  0  0  0  0
 10 16  1  0  0  0  0
 11 12  1  0  0  0  0
 12 13  1  0  0  0  0
 12 14  2  0  0  0  0
 14 15  1  0  0  0  0
 15 16  2  0  0  0  0
 16 17  1  0  0  0  0
 17 18  1  0  0  0  0
 17 21  1  0  0  0  0
 18 19  1  0  0  0  0
 19 20  3  0  0  0  0
 21 22  2  0  0  0  0
 21 26  1  0  0  0  0
 22 23  1  0  0  0  0
 23 24  2  0  0  0  0
 24 25  1  0  0  0  0
 25 26  2  0  0  0  0
M  END
$$$$

 OpenBabel12191814062D

 22 25  0  0  0  0  0  0  0  0999 V2000
    1.6378    3.9359    0.0000 C   0  0  0  0  0  0  0  0  0  0  0  0
    2.0040    3.1966    0.0000 N   0  0  0  0  0  0  0  0  0  0  0  0
    2.8274    3.1442    0.0000 C   0  0  0  0  0  0  0  0  0  0  0  0
    3.1936    2.4049    0.0000 C   0  0  0  0  0  0  0  0  0  0  0  0
    2.7365    1.7181    0.0000 C   0  0  0  0  0  0  0  0  0  0  0  0
    1.9132    1.7706    0.0000 C   0  0  0  0  0  0  0  0  0  0  0  0
    1.5470    2.5098    0.0000 C   0  0  0  0  0  0  0  0  0  0  0  0
    3.1028    0.9789    0.0000 C   0  0  0  0  0  0  0  0  0  0  0  0
    3.9277    0.9881    0.0000 N   0  0  0  0  0  0  0  0  0  0  0  0
    4.4493    0.3489    0.0000 C   0  0  0  0  0  0  0  0  0  0  0  0
    5.2349    0.6008    0.0000 C   0  0  0  0  0  0  0  0  0  0  0  0
    5.8459    0.0465    0.0000 C   0  0  0  0  0  0  0  0  0  0  0  0
    6.6314    0.2985    0.0000 Cl  0  0  0  0  0  0  0  0  0  0  0  0
    5.6713   -0.7598    0.0000 C   0  0  0  0  0  0  0  0  0  0  0  0
    4.8857   -1.0118    0.0000 C   0  0  0  0  0  0  0  0  0  0  0  0
    4.2747   -0.4575    0.0000 C   0  0  0  0  0  0  0  0  0  0  0  0
    3.5354   -0.8237    0.0000 C   0  0  0  0  0  0  0  0  0  0  0  0
    2.7882   -0.4741    0.0000 C   0  0  0  0  0  0  0  0  0  0  0  0
    2.0847   -0.9051    0.0000 S   0  0  0  0  0  0  0  0  0  0  0  0
    1.4574   -0.3693    0.0000 C   0  0  0  0  0  0  0  0  0  0  0  0
    1.7732    0.3929    0.0000 C   0  0  0  0  0  0  0  0  0  0  0  0
    2.5956    0.3281    0.0000 C   0  0  0  0  0  0  0  0  0  0  0  0
  1  2  1  0  0  0  0
  2  3  1  0  0  0  0
  2  7  1  0  0  0  0
  3  4  1  0  0  0  0
  4  5  1  0  0  0  0
  5  6  1  0  0  0  0
  5  8  1  0  0  0  0
  6  7  1  0  0  0  0
  8  9  2  0  0  0  0
  8 22  1  0  0  0  0
  9 10  1  0  0  0  0
 10 11  2  0  0  0  0
 10 16  1  0  0  0  0
 11 12  1  0  0  0  0
 12 13  1  0  0  0  0
 12 14  2  0  0  0  0
 14 15  1  0  0  0  0
 15 16  2  0  0  0  0
 16 17  1  0  0  0  0
 17 18  1  0  0  0  0
 18 19  1  0  0  0  0
 18 22  2  0  0  0  0
 19 20  1  0  0  0  0
 20 21  2  0  0  0  0
 21 22  1  0  0  0  0
M  END
$$$$

 OpenBabel12191814062D

 23 26  0  0  0  0  0  0  0  0999 V2000
    0.9458    2.8070    0.0000 C   0  0  0  0  0  0  0  0  0  0  0  0
    1.6603    2.3945    0.0000 N   0  0  0  0  0  0  0  0  0  0  0  0
    2.3747    2.8070    0.0000 C   0  0  0  0  0  0  0  0  0  0  0  0
    3.0892    2.3945    0.0000 C   0  0  0  0  0  0  0  0  0  0  0  0
    3.0892    1.5695    0.0000 C   0  0  0  0  0  0  0  0  0  0  0  0
    2.3747    1.1570    0.0000 C   0  0  0  0  0  0  0  0  0  0  0  0
    1.6603    1.5695    0.0000 C   0  0  0  0  0  0  0  0  0  0  0  0
    3.8037    1.1570    0.0000 O   0  0  0  0  0  0  0  0  0  0  0  0
    3.8037    0.3320    0.0000 C   0  0  0  0  0  0  0  0  0  0  0  0
    4.5470   -0.0260    0.0000 C   0  0  0  0  0  0  0  0  0  0  0  0
    5.1517    0.5352    0.0000 C   0  0  0  0  0  0  0  0  0  0  0  0
    5.9401    0.2920    0.0000 C   0  0  0  0  0  0  0  0  0  0  0  0
    6.1237   -0.5123    0.0000 C   0  0  0  0  0  0  0  0  0  0  0  0
    5.5189   -1.0735    0.0000 C   0  0  0  0  0  0  0  0  0  0  0  0
    4.7305   -0.8303    0.0000 C   0  0  0  0  0  0  0  0  0  0  0  0
    4.2162   -1.4753    0.0000 C   0  0  0  0  0  0  0  0  0  0  0  0
    3.3912   -1.4753    0.0000 C   0  0  0  0  0  0  0  0  0  0  0  0
    2.8768   -0.8303    0.0000 C   0  0  0  0  0  0  0  0  0  0  0  0
    2.0884   -1.0735    0.0000 C   0  0  0  0  0  0  0  0  0  0  0  0
    1.4837   -0.5123    0.0000 C   0  0  0  0  0  0  0  0  0  0  0  0
    1.6673    0.2920    0.0000 C   0  0  0  0  0  0  0  0  0  0  0  0
    2.4556    0.5352    0.0000 C   0  0  0  0  0  0  0  0  0  0  0  0
    3.0604   -0.0260    0.0000 C   0  0  0  0  0  0  0  0  0  0  0  0
  1  2  1  0  0  0  0
  2  3  1  0  0  0  0
  2  7  1  0  0  0  0
  3  4  1  0  0  0  0
  4  5  1  0  0  0  0
  5  6  1  0  0  0  0
  5  8  1  0  0  0  0
  6  7  1  0  0  0  0
  8  9  1  0  0  0  0
  9 10  1  0  0  0  0
  9 23  1  0  0  0  0
 10 11  2  0  0  0  0
 10 15  1  0  0  0  0
 11 12  1  0  0  0  0
 12 13  2  0  0  0  0
 13 14  1  0  0  0  0
 14 15  2  0  0  0  0
 15 16  1  0  0  0  0
 16 17  1  0  0  0  0
 17 18  1  0  0  0  0
 18 19  2  0  0  0  0
 18 23  1  0  0  0  0
 19 20  1  0  0  0  0
 20 21  2  0  0  0  0
 21 22  1  0  0  0  0
 22 23  2  0  0  0  0
M  END
$$$$

 OpenBabel12191814062D

 23 26  0  0  0  0  0  0  0  0999 V2000
    3.8037    3.5693    0.0000 C   0  0  0  0  0  0  0  0  0  0  0  0
    3.8037    2.7443    0.0000 N   0  0  0  0  0  0  0  0  0  0  0  0
    3.0604    2.3863    0.0000 C   0  0  0  0  0  0  0  0  0  0  0  0
    2.8768    1.5820    0.0000 C   0  0  0  0  0  0  0  0  0  0  0  0
    3.3912    0.9370    0.0000 C   0  0  0  0  0  0  0  0  0  0  0  0
    4.2162    0.9370    0.0000 C   0  0  0  0  0  0  0  0  0  0  0  0
    4.7305    1.5820    0.0000 C   0  0  0  0  0  0  0  0  0  0  0  0
    4.5470    2.3863    0.0000 C   0  0  0  0  0  0  0  0  0  0  0  0
    4.7305    0.2920    0.0000 C   0  0  0  0  0  0  0  0  0  0  0  0
    5.5189    0.5352    0.0000 C   0  0  0  0  0  0  0  0  0  0  0  0
    6.1237   -0.0260    0.0000 C   0  0  0  0  0  0  0  0  0  0  0  0
    5.9401   -0.8303    0.0000 C   0  0  0  0  0  0  0  0  0  0  0  0
    5.1517   -1.0735    0.0000 C   0  0  0  0  0  0  0  0  0  0  0  0
    4.5470   -0.5123    0.0000 C   0  0  0  0  0  0  0  0  0  0  0  0
    3.8037   -0.8703    0.0000 S   0  0  0  0  0  0  0  0  0  0  0  0
    3.0604   -0.5123    0.0000 C   0  0  0  0  0  0  0  0  0  0  0  0
    2.4556   -1.0735    0.0000 C   0  0  0  0  0  0  0  0  0  0  0  0
    1.6673   -0.8303    0.0000 C   0  0  0  0  0  0  0  0  0  0  0  0
    1.4837   -0.0260    0.0000 C   0  0  0  0  0  0  0  0  0  0  0  0
    2.0884    0.5352    0.0000 C   0  0  0  0  0  0  0  0  0  0  0  0
    2.8768    0.2920    0.0000 C   0  0  0  0  0  0  0  0  0  0  0  0
    6.9120    0.2172    0.0000 C   0  0  0  0  0  0  0  0  0  0  0  0
    7.7004    0.4604    0.0000 N   0  0  0  0  0  0  0  0  0  0  0  0
  1  2  1  0  0  0  0
  2  3  1  0  0  0  0
  2  8  1  0  0  0  0
  3  4  1  0  0  0  0
  4  5  1  0  0  0  0
  5  6  2  0  0  0  0
  5 21  1  0  0  0  0
  6  7  1  0  0  0  0
  6  9  1  0  0  0  0
  7  8  1  0  0  0  0
  9 10  2  0  0  0  0
  9 14  1  0  0  0  0
 10 11  1  0  0  0  0
 11 12  2  0  0  0  0
 11 22  1  0  0  0  0
 12 13  1  0  0  0  0
 13 14  2  0  0  0  0
 14 15  1  0  0  0  0
 15 16  1  0  0  0  0
 16 17  2  0  0  0  0
 16 21  1  0  0  0  0
 17 18  1  0  0  0  0
 18 19  2  0  0  0  0
 19 20  1  0  0  0  0
 20 21  2  0  0  0  0
 22 23  3  0  0  0  0
M  END
$$$$

 OpenBabel12191814062D

 24 26  0  0  0  0  0  0  0  0999 V2000
   -2.1730   -0.3020    0.0000 C   0  0  0  0  0  0  0  0  0  0  0  0
   -2.1730   -1.1270    0.0000 N   0  0  0  0  0  0  0  0  0  0  0  0
   -1.4586   -1.5395    0.0000 C   0  0  0  0  0  0  0  0  0  0  0  0
   -1.4586   -2.3645    0.0000 C   0  0  0  0  0  0  0  0  0  0  0  0
   -2.1730   -2.7770    0.0000 C   0  0  0  0  0  0  0  0  0  0  0  0
   -2.8875   -2.3645    0.0000 C   0  0  3  0  0  0  0  0  0  0  0  0
   -2.8875   -1.5395    0.0000 C   0  0  0  0  0  0  0  0  0  0  0  0
   -3.6020   -2.7770    0.0000 O   0  0  0  0  0  0  0  0  0  0  0  0
   -3.6020   -3.6020    0.0000 C   0  0  0  0  0  0  0  0  0  0  0  0
   -2.8875   -4.0145    0.0000 O   0  0  0  0  0  0  0  0  0  0  0  0
   -4.3164   -4.0145    0.0000 C   0  0  3  0  0  0  0  0  0  0  0  0
   -4.7289   -3.3000    0.0000 O   0  0  0  0  0  0  0  0  0  0  0  0
   -5.0309   -4.4270    0.0000 C   0  0  0  0  0  0  0  0  0  0  0  0
   -5.0309   -5.2520    0.0000 C   0  0  0  0  0  0  0  0  0  0  0  0
   -5.7454   -5.6645    0.0000 C   0  0  0  0  0  0  0  0  0  0  0  0
   -6.4599   -5.2520    0.0000 C   0  0  0  0  0  0  0  0  0  0  0  0
   -6.4599   -4.4270    0.0000 C   0  0  0  0  0  0  0  0  0  0  0  0
   -5.7454   -4.0145    0.0000 C   0  0  0  0  0  0  0  0  0  0  0  0
   -3.9039   -4.7289    0.0000 C   0  0  0  0  0  0  0  0  0  0  0  0
   -3.0789   -4.7289    0.0000 C   0  0  0  0  0  0  0  0  0  0  0  0
   -2.6664   -5.4434    0.0000 C   0  0  0  0  0  0  0  0  0  0  0  0
   -3.0789   -6.1579    0.0000 C   0  0  0  0  0  0  0  0  0  0  0  0
   -3.9039   -6.1579    0.0000 C   0  0  0  0  0  0  0  0  0  0  0  0
   -4.3164   -5.4434    0.0000 C   0  0  0  0  0  0  0  0  0  0  0  0
  1  2  1  0  0  0  0
  2  3  1  0  0  0  0
  2  7  1  0  0  0  0
  3  4  1  0  0  0  0
  4  5  1  0  0  0  0
  5  6  1  0  0  0  0
  6  7  1  0  0  0  0
  6  8  1  0  0  0  0
  8  9  1  0  0  0  0
  9 10  2  0  0  0  0
  9 11  1  0  0  0  0
 11 12  1  0  0  0  0
 11 13  1  0  0  0  0
 11 19  1  0  0  0  0
 13 14  1  0  0  0  0
 13 18  1  0  0  0  0
 14 15  1  0  0  0  0
 15 16  1  0  0  0  0
 16 17  1  0  0  0  0
 17 18  1  0  0  0  0
 19 20  2  0  0  0  0
 19 24  1  0  0  0  0
 20 21  1  0  0  0  0
 21 22  2  0  0  0  0
 22 23  1  0  0  0  0
 23 24  2  0  0  0  0
M  END
$$$$

 OpenBabel12191814062D

 27 30  0  0  0  0  0  0  0  0999 V2000
   -1.8236   -3.5925    0.0000 C   0  0  0  0  0  0  0  0  0  0  0  0
   -1.3589   -2.9109    0.0000 N   0  0  0  0  0  0  0  0  0  0  0  0
   -1.7714   -2.1964    0.0000 C   0  0  0  0  0  0  0  0  0  0  0  0
   -1.4700   -1.4284    0.0000 C   0  0  0  0  0  0  0  0  0  0  0  0
   -0.6816   -1.1853    0.0000 C   0  0  0  0  0  0  0  0  0  0  0  0
    0.0000   -1.6500    0.0000 C   0  0  3  0  0  0  0  0  0  0  0  0
    0.0617   -2.4727    0.0000 C   0  0  0  0  0  0  0  0  0  0  0  0
   -0.5431   -3.0338    0.0000 C   0  0  0  0  0  0  0  0  0  0  0  0
    0.7145   -1.2375    0.0000 N   0  0  0  0  0  0  0  0  0  0  0  0
    0.7145   -0.4125    0.0000 N   0  0  0  0  0  0  0  0  0  0  0  0
    1.4289    0.0000    0.0000 C   0  0  0  0  0  0  0  0  0  0  0  0
    1.4289    0.8250    0.0000 C   0  0  0  0  0  0  0  0  0  0  0  0
    2.1434    1.2375    0.0000 C   0  0  0  0  0  0  0  0  0  0  0  0
    2.1434    2.0625    0.0000 C   0  0  0  0  0  0  0  0  0  0  0  0
    2.8579    2.4750    0.0000 C   0  0  0  0  0  0  0  0  0  0  0  0
    3.5724    2.0625    0.0000 C   0  0  0  0  0  0  0  0  0  0  0  0
    4.2868    2.4750    0.0000 Cl  0  0  0  0  0  0  0  0  0  0  0  0
    3.5724    1.2375    0.0000 C   0  0  0  0  0  0  0  0  0  0  0  0
    2.8579    0.8250    0.0000 C   0  0  0  0  0  0  0  0  0  0  0  0
    2.1434   -0.4125    0.0000 C   0  0  0  0  0  0  0  0  0  0  0  0
    2.8579    0.0000    0.0000 C   0  0  0  0  0  0  0  0  0  0  0  0
    3.5724   -0.4125    0.0000 C   0  0  0  0  0  0  0  0  0  0  0  0
    3.5724   -1.2375    0.0000 C   0  0  0  0  0  0  0  0  0  0  0  0
    2.8579   -1.6500    0.0000 C   0  0  0  0  0  0  0  0  0  0  0  0
    2.1434   -1.2375    0.0000 C   0  0  0  0  0  0  0  0  0  0  0  0
    1.4289   -1.6500    0.0000 C   0  0  0  0  0  0  0  0  0  0  0  0
    1.4289   -2.4750    0.0000 O   0  0  0  0  0  0  0  0  0  0  0  0
  1  2  1  0  0  0  0
  2  3  1  0  0  0  0
  2  8  1  0  0  0  0
  3  4  1  0  0  0  0
  4  5  1  0  0  0  0
  5  6  1  0  0  0  0
  6  7  1  0  0  0  0
  6  9  1  0  0  0  0
  7  8  1  0  0  0  0
  9 10  1  0  0  0  0
  9 26  1  0  0  0  0
 10 11  2  0  0  0  0
 11 12  1  0  0  0  0
 11 20  1  0  0  0  0
 12 13  1  0  0  0  0
 13 14  2  0  0  0  0
 13 19  1  0  0  0  0
 14 15  1  0  0  0  0
 15 16  2  0  0  0  0
 16 17  1  0  0  0  0
 16 18  1  0  0  0  0
 18 19  2  0  0  0  0
 20 21  2  0  0  0  0
 20 25  1  0  0  0  0
 21 22  1  0  0  0  0
 22 23  2  0  0  0  0
 23 24  1  0  0  0  0
 24 25  2  0  0  0  0
 25 26  1  0  0  0  0
 26 27  2  0  0  0  0
M  END
$$$$

 OpenBabel12191814062D

 24 26  0  0  0  0  0  0  0  0999 V2000
    2.7512   -2.5366    0.0000 C   0  0  0  0  0  0  0  0  0  0  0  0
    2.7512   -3.3616    0.0000 N   0  0  0  0  0  0  0  0  0  0  0  0
    3.4186   -3.8465    0.0000 C   0  0  0  0  0  0  0  0  0  0  0  0
    3.1637   -4.6312    0.0000 C   0  0  0  0  0  0  0  0  0  0  0  0
    2.3387   -4.6312    0.0000 C   0  0  0  0  0  0  0  0  0  0  0  0
    2.0837   -3.8465    0.0000 C   0  0  3  0  0  0  0  0  0  0  0  0
    1.2991   -3.5916    0.0000 C   0  0  0  0  0  0  0  0  0  0  0  0
    1.1276   -2.7846    0.0000 C   0  0  0  0  0  0  0  0  0  0  0  0
    0.3430   -2.5297    0.0000 O   0  0  0  0  0  0  0  0  0  0  0  0
    0.1714   -1.7227    0.0000 C   0  0  3  0  0  0  0  0  0  0  0  0
    0.9784   -1.5512    0.0000 C   0  0  0  0  0  0  0  0  0  0  0  0
   -0.6355   -1.8942    0.0000 C   0  0  0  0  0  0  0  0  0  0  0  0
   -0.8905   -2.6789    0.0000 C   0  0  0  0  0  0  0  0  0  0  0  0
   -1.6974   -2.8504    0.0000 C   0  0  0  0  0  0  0  0  0  0  0  0
   -2.2495   -2.2373    0.0000 C   0  0  0  0  0  0  0  0  0  0  0  0
   -1.9945   -1.4527    0.0000 C   0  0  0  0  0  0  0  0  0  0  0  0
   -1.1876   -1.2811    0.0000 C   0  0  0  0  0  0  0  0  0  0  0  0
   -0.0001   -0.9157    0.0000 C   0  0  0  0  0  0  0  0  0  0  0  0
   -0.7847   -0.6608    0.0000 C   0  0  0  0  0  0  0  0  0  0  0  0
   -0.9562    0.1462    0.0000 C   0  0  0  0  0  0  0  0  0  0  0  0
   -0.3431    0.6982    0.0000 C   0  0  0  0  0  0  0  0  0  0  0  0
   -0.5147    1.5052    0.0000 Cl  0  0  0  0  0  0  0  0  0  0  0  0
    0.4415    0.4433    0.0000 C   0  0  0  0  0  0  0  0  0  0  0  0
    0.6130   -0.3637    0.0000 C   0  0  0  0  0  0  0  0  0  0  0  0
  1  2  1  0  0  0  0
  2  3  1  0  0  0  0
  2  6  1  0  0  0  0
  3  4  1  0  0  0  0
  4  5  1  0  0  0  0
  5  6  1  0  0  0  0
  6  7  1  0  0  0  0
  7  8  1  0  0  0  0
  8  9  1  0  0  0  0
  9 10  1  0  0  0  0
 10 11  1  0  0  0  0
 10 12  1  0  0  0  0
 10 18  1  0  0  0  0
 12 13  2  0  0  0  0
 12 17  1  0  0  0  0
 13 14  1  0  0  0  0
 14 15  2  0  0  0  0
 15 16  1  0  0  0  0
 16 17  2  0  0  0  0
 18 19  2  0  0  0  0
 18 24  1  0  0  0  0
 19 20  1  0  0  0  0
 20 21  2  0  0  0  0
 21 22  1  0  0  0  0
 21 23  1  0  0  0  0
 23 24  2  0  0  0  0
M  END
$$$$

 OpenBabel12191814062D

 27 30  0  0  0  0  0  0  0  0999 V2000
    1.4289    3.3000    0.0000 C   0  0  0  0  0  0  0  0  0  0  0  0
    2.1434    3.7125    0.0000 N   0  0  0  0  0  0  0  0  0  0  0  0
    2.1434    4.5375    0.0000 C   0  0  0  0  0  0  0  0  0  0  0  0
    2.8579    4.9500    0.0000 C   0  0  0  0  0  0  0  0  0  0  0  0
    3.5724    4.5375    0.0000 C   0  0  0  0  0  0  0  0  0  0  0  0
    3.5724    3.7125    0.0000 C   0  0  0  0  0  0  0  0  0  0  0  0
    2.8579    3.3000    0.0000 C   0  0  3  0  0  0  0  0  0  0  0  0
    2.8579    2.4750    0.0000 C   0  0  0  0  0  0  0  0  0  0  0  0
    2.1434    2.0625    0.0000 C   0  0  0  0  0  0  0  0  0  0  0  0
    2.1434    1.2375    0.0000 N   0  0  0  0  0  0  0  0  0  0  0  0
    2.8579    0.8250    0.0000 C   0  0  0  0  0  0  0  0  0  0  0  0
    3.5724    1.2375    0.0000 C   0  0  0  0  0  0  0  0  0  0  0  0
    4.2868    0.8250    0.0000 C   0  0  0  0  0  0  0  0  0  0  0  0
    4.2868   -0.0000    0.0000 C   0  0  0  0  0  0  0  0  0  0  0  0
    3.5724   -0.4125    0.0000 C   0  0  0  0  0  0  0  0  0  0  0  0
    2.8579    0.0000    0.0000 C   0  0  0  0  0  0  0  0  0  0  0  0
    2.1434   -0.4125    0.0000 S   0  0  0  0  0  0  0  0  0  0  0  0
    1.4289    0.0000    0.0000 C   0  0  0  0  0  0  0  0  0  0  0  0
    0.7145   -0.4125    0.0000 C   0  0  0  0  0  0  0  0  0  0  0  0
    0.0000    0.0000    0.0000 C   0  0  0  0  0  0  0  0  0  0  0  0
    0.0000    0.8250    0.0000 C   0  0  0  0  0  0  0  0  0  0  0  0
    0.7145    1.2375    0.0000 C   0  0  0  0  0  0  0  0  0  0  0  0
    1.4289    0.8250    0.0000 C   0  0  0  0  0  0  0  0  0  0  0  0
   -0.7145    1.2375    0.0000 S   0  0  0  0  0  0  0  0  0  0  0  0
   -1.4289    1.6500    0.0000 C   0  0  0  0  0  0  0  0  0  0  0  0
   -0.3020    1.9520    0.0000 O   0  0  0  0  0  0  0  0  0  0  0  0
   -1.1270    0.5230    0.0000 O   0  0  0  0  0  0  0  0  0  0  0  0
  1  2  1  0  0  0  0
  2  3  1  0  0  0  0
  2  7  1  0  0  0  0
  3  4  1  0  0  0  0
  4  5  1  0  0  0  0
  5  6  1  0  0  0  0
  6  7  1  0  0  0  0
  7  8  1  0  0  0  0
  8  9  1  0  0  0  0
  9 10  1  0  0  0  0
 10 11  1  0  0  0  0
 10 23  1  0  0  0  0
 11 12  2  0  0  0  0
 11 16  1  0  0  0  0
 12 13  1  0  0  0  0
 13 14  2  0  0  0  0
 14 15  1  0  0  0  0
 15 16  2  0  0  0  0
 16 17  1  0  0  0  0
 17 18  1  0  0  0  0
 18 19  2  0  0  0  0
 18 23  1  0  0  0  0
 19 20  1  0  0  0  0
 20 21  2  0  0  0  0
 21 22  1  0  0  0  0
 21 24  1  0  0  0  0
 22 23  2  0  0  0  0
 24 25  1  0  0  0  0
 24 26  2  0  0  0  0
 24 27  2  0  0  0  0
M  END
$$$$

 OpenBabel12191814062D

 26 29  0  0  0  0  0  0  0  0999 V2000
    1.4289    3.3000    0.0000 C   0  0  0  0  0  0  0  0  0  0  0  0
    2.1434    3.7125    0.0000 N   0  0  0  0  0  0  0  0  0  0  0  0
    2.1434    4.5375    0.0000 C   0  0  0  0  0  0  0  0  0  0  0  0
    2.8579    4.9500    0.0000 C   0  0  0  0  0  0  0  0  0  0  0  0
    3.5724    4.5375    0.0000 C   0  0  0  0  0  0  0  0  0  0  0  0
    3.5724    3.7125    0.0000 C   0  0  0  0  0  0  0  0  0  0  0  0
    2.8579    3.3000    0.0000 C   0  0  3  0  0  0  0  0  0  0  0  0
    2.8579    2.4750    0.0000 C   0  0  0  0  0  0  0  0  0  0  0  0
    2.1434    2.0625    0.0000 C   0  0  0  0  0  0  0  0  0  0  0  0
    2.1434    1.2375    0.0000 N   0  0  0  0  0  0  0  0  0  0  0  0
    2.8579    0.8250    0.0000 C   0  0  0  0  0  0  0  0  0  0  0  0
    3.5724    1.2375    0.0000 C   0  0  0  0  0  0  0  0  0  0  0  0
    4.2868    0.8250    0.0000 C   0  0  0  0  0  0  0  0  0  0  0  0
    4.2868   -0.0000    0.0000 C   0  0  0  0  0  0  0  0  0  0  0  0
    3.5724   -0.4125    0.0000 C   0  0  0  0  0  0  0  0  0  0  0  0
    2.8579    0.0000    0.0000 C   0  0  0  0  0  0  0  0  0  0  0  0
    2.1434   -0.4125    0.0000 S   0  0  0  0  0  0  0  0  0  0  0  0
    1.4289    0.0000    0.0000 C   0  0  0  0  0  0  0  0  0  0  0  0
    0.7145   -0.4125    0.0000 C   0  0  0  0  0  0  0  0  0  0  0  0
    0.0000    0.0000    0.0000 C   0  0  0  0  0  0  0  0  0  0  0  0
    0.0000    0.8250    0.0000 C   0  0  0  0  0  0  0  0  0  0  0  0
    0.7145    1.2375    0.0000 C   0  0  0  0  0  0  0  0  0  0  0  0
    1.4289    0.8250    0.0000 C   0  0  0  0  0  0  0  0  0  0  0  0
   -0.7145    1.2375    0.0000 S   0  0  3  0  0  0  0  0  0  0  0  0
   -1.4289    0.8250    0.0000 C   0  0  0  0  0  0  0  0  0  0  0  0
   -0.7145    2.0625    0.0000 O   0  0  0  0  0  0  0  0  0  0  0  0
  1  2  1  0  0  0  0
  2  3  1  0  0  0  0
  2  7  1  0  0  0  0
  3  4  1  0  0  0  0
  4  5  1  0  0  0  0
  5  6  1  0  0  0  0
  6  7  1  0  0  0  0
  7  8  1  0  0  0  0
  8  9  1  0  0  0  0
  9 10  1  0  0  0  0
 10 11  1  0  0  0  0
 10 23  1  0  0  0  0
 11 12  2  0  0  0  0
 11 16  1  0  0  0  0
 12 13  1  0  0  0  0
 13 14  2  0  0  0  0
 14 15  1  0  0  0  0
 15 16  2  0  0  0  0
 16 17  1  0  0  0  0
 17 18  1  0  0  0  0
 18 19  2  0  0  0  0
 18 23  1  0  0  0  0
 19 20  1  0  0  0  0
 20 21  2  0  0  0  0
 21 22  1  0  0  0  0
 21 24  1  0  0  0  0
 22 23  2  0  0  0  0
 24 25  1  0  0  0  0
 24 26  2  0  0  0  0
M  END
$$$$

 OpenBabel12191814062D

 23 26  0  0  0  0  0  0  0  0999 V2000
    1.9594    3.9102    0.0000 C   0  0  0  0  0  0  0  0  0  0  0  0
    2.3173    3.1669    0.0000 N   0  0  0  0  0  0  0  0  0  0  0  0
    3.1400    3.1053    0.0000 C   0  0  0  0  0  0  0  0  0  0  0  0
    3.4980    2.3620    0.0000 C   0  0  0  0  0  0  0  0  0  0  0  0
    3.0332    1.6803    0.0000 N   0  0  0  0  0  0  0  0  0  0  0  0
    2.2105    1.7420    0.0000 C   0  0  0  0  0  0  0  0  0  0  0  0
    1.8526    2.4853    0.0000 C   0  0  0  0  0  0  0  0  0  0  0  0
    3.3912    0.9370    0.0000 C   0  0  0  0  0  0  0  0  0  0  0  0
    4.2162    0.9370    0.0000 N   0  0  0  0  0  0  0  0  0  0  0  0
    4.7305    0.2920    0.0000 C   0  0  0  0  0  0  0  0  0  0  0  0
    5.5189    0.5352    0.0000 C   0  0  0  0  0  0  0  0  0  0  0  0
    6.1237   -0.0260    0.0000 C   0  0  0  0  0  0  0  0  0  0  0  0
    6.9120    0.2172    0.0000 F   0  0  0  0  0  0  0  0  0  0  0  0
    5.9401   -0.8303    0.0000 C   0  0  0  0  0  0  0  0  0  0  0  0
    5.1517   -1.0735    0.0000 C   0  0  0  0  0  0  0  0  0  0  0  0
    4.5470   -0.5123    0.0000 C   0  0  0  0  0  0  0  0  0  0  0  0
    3.8037   -0.8703    0.0000 C   0  0  0  0  0  0  0  0  0  0  0  0
    3.0604   -0.5123    0.0000 C   0  0  0  0  0  0  0  0  0  0  0  0
    2.4556   -1.0735    0.0000 C   0  0  0  0  0  0  0  0  0  0  0  0
    1.6673   -0.8303    0.0000 C   0  0  0  0  0  0  0  0  0  0  0  0
    1.4837   -0.0260    0.0000 C   0  0  0  0  0  0  0  0  0  0  0  0
    2.0884    0.5352    0.0000 C   0  0  0  0  0  0  0  0  0  0  0  0
    2.8768    0.2920    0.0000 C   0  0  0  0  0  0  0  0  0  0  0  0
  1  2  1  0  0  0  0
  2  3  1  0  0  0  0
  2  7  1  0  0  0  0
  3  4  1  0  0  0  0
  4  5  1  0  0  0  0
  5  6  1  0  0  0  0
  5  8  1  0  0  0  0
  6  7  1  0  0  0  0
  8  9  2  0  0  0  0
  8 23  1  0  0  0  0
  9 10  1  0  0  0  0
 10 11  2  0  0  0  0
 10 16  1  0  0  0  0
 11 12  1  0  0  0  0
 12 13  1  0  0  0  0
 12 14  2  0  0  0  0
 14 15  1  0  0  0  0
 15 16  2  0  0  0  0
 16 17  1  0  0  0  0
 17 18  1  0  0  0  0
 18 19  2  0  0  0  0
 18 23  1  0  0  0  0
 19 20  1  0  0  0  0
 20 21  2  0  0  0  0
 21 22  1  0  0  0  0
 22 23  2  0  0  0  0
M  END
$$$$

 OpenBabel12191814062D

 22 25  0  0  0  0  0  0  0  0999 V2000
    1.9594    3.9102    0.0000 C   0  0  0  0  0  0  0  0  0  0  0  0
    2.3173    3.1669    0.0000 N   0  0  0  0  0  0  0  0  0  0  0  0
    3.1400    3.1053    0.0000 C   0  0  0  0  0  0  0  0  0  0  0  0
    3.4980    2.3620    0.0000 C   0  0  0  0  0  0  0  0  0  0  0  0
    3.0332    1.6803    0.0000 N   0  0  0  0  0  0  0  0  0  0  0  0
    2.2105    1.7420    0.0000 C   0  0  0  0  0  0  0  0  0  0  0  0
    1.8526    2.4853    0.0000 C   0  0  0  0  0  0  0  0  0  0  0  0
    3.3912    0.9370    0.0000 C   0  0  0  0  0  0  0  0  0  0  0  0
    4.2162    0.9370    0.0000 N   0  0  0  0  0  0  0  0  0  0  0  0
    4.7305    0.2920    0.0000 C   0  0  0  0  0  0  0  0  0  0  0  0
    5.5189    0.5352    0.0000 C   0  0  0  0  0  0  0  0  0  0  0  0
    6.1237   -0.0260    0.0000 C   0  0  0  0  0  0  0  0  0  0  0  0
    5.9401   -0.8303    0.0000 C   0  0  0  0  0  0  0  0  0  0  0  0
    5.1517   -1.0735    0.0000 C   0  0  0  0  0  0  0  0  0  0  0  0
    4.5470   -0.5123    0.0000 C   0  0  0  0  0  0  0  0  0  0  0  0
    3.8037   -0.8703    0.0000 C   0  0  0  0  0  0  0  0  0  0  0  0
    3.0604   -0.5123    0.0000 C   0  0  0  0  0  0  0  0  0  0  0  0
    2.4556   -1.0735    0.0000 C   0  0  0  0  0  0  0  0  0  0  0  0
    1.6673   -0.8303    0.0000 C   0  0  0  0  0  0  0  0  0  0  0  0
    1.4837   -0.0260    0.0000 C   0  0  0  0  0  0  0  0  0  0  0  0
    2.0884    0.5352    0.0000 C   0  0  0  0  0  0  0  0  0  0  0  0
    2.8768    0.2920    0.0000 C   0  0  0  0  0  0  0  0  0  0  0  0
  1  2  1  0  0  0  0
  2  3  1  0  0  0  0
  2  7  1  0  0  0  0
  3  4  1  0  0  0  0
  4  5  1  0  0  0  0
  5  6  1  0  0  0  0
  5  8  1  0  0  0  0
  6  7  1  0  0  0  0
  8  9  2  0  0  0  0
  8 22  1  0  0  0  0
  9 10  1  0  0  0  0
 10 11  2  0  0  0  0
 10 15  1  0  0  0  0
 11 12  1  0  0  0  0
 12 13  2  0  0  0  0
 13 14  1  0  0  0  0
 14 15  2  0  0  0  0
 15 16  1  0  0  0  0
 16 17  1  0  0  0  0
 17 18  2  0  0  0  0
 17 22  1  0  0  0  0
 18 19  1  0  0  0  0
 19 20  2  0  0  0  0
 20 21  1  0  0  0  0
 21 22  2  0  0  0  0
M  END
$$$$

 OpenBabel12191814062D

 22 25  0  0  0  0  0  0  0  0999 V2000
    1.6378    3.9359    0.0000 C   0  0  0  0  0  0  0  0  0  0  0  0
    2.0040    3.1966    0.0000 N   0  0  0  0  0  0  0  0  0  0  0  0
    2.8274    3.1442    0.0000 C   0  0  0  0  0  0  0  0  0  0  0  0
    3.1936    2.4049    0.0000 C   0  0  0  0  0  0  0  0  0  0  0  0
    2.7365    1.7181    0.0000 N   0  0  0  0  0  0  0  0  0  0  0  0
    1.9132    1.7706    0.0000 C   0  0  0  0  0  0  0  0  0  0  0  0
    1.5470    2.5098    0.0000 C   0  0  0  0  0  0  0  0  0  0  0  0
    3.1028    0.9789    0.0000 C   0  0  0  0  0  0  0  0  0  0  0  0
    3.9277    0.9881    0.0000 N   0  0  0  0  0  0  0  0  0  0  0  0
    4.4493    0.3489    0.0000 C   0  0  0  0  0  0  0  0  0  0  0  0
    5.2349    0.6008    0.0000 C   0  0  0  0  0  0  0  0  0  0  0  0
    5.8459    0.0465    0.0000 C   0  0  0  0  0  0  0  0  0  0  0  0
    5.6713   -0.7598    0.0000 C   0  0  0  0  0  0  0  0  0  0  0  0
    4.8857   -1.0118    0.0000 C   0  0  0  0  0  0  0  0  0  0  0  0
    4.2747   -0.4575    0.0000 C   0  0  0  0  0  0  0  0  0  0  0  0
    3.5354   -0.8237    0.0000 N   0  0  0  0  0  0  0  0  0  0  0  0
    2.7882   -0.4741    0.0000 C   0  0  0  0  0  0  0  0  0  0  0  0
    2.0847   -0.9051    0.0000 S   0  0  0  0  0  0  0  0  0  0  0  0
    1.4574   -0.3693    0.0000 C   0  0  0  0  0  0  0  0  0  0  0  0
    0.6552   -0.5619    0.0000 C   0  0  0  0  0  0  0  0  0  0  0  0
    1.7732    0.3929    0.0000 C   0  0  0  0  0  0  0  0  0  0  0  0
    2.5956    0.3281    0.0000 C   0  0  0  0  0  0  0  0  0  0  0  0
  1  2  1  0  0  0  0
  2  3  1  0  0  0  0
  2  7  1  0  0  0  0
  3  4  1  0  0  0  0
  4  5  1  0  0  0  0
  5  6  1  0  0  0  0
  5  8  1  0  0  0  0
  6  7  1  0  0  0  0
  8  9  2  0  0  0  0
  8 22  1  0  0  0  0
  9 10  1  0  0  0  0
 10 11  2  0  0  0  0
 10 15  1  0  0  0  0
 11 12  1  0  0  0  0
 12 13  2  0  0  0  0
 13 14  1  0  0  0  0
 14 15  2  0  0  0  0
 15 16  1  0  0  0  0
 16 17  1  0  0  0  0
 17 18  1  0  0  0  0
 17 22  2  0  0  0  0
 18 19  1  0  0  0  0
 19 20  1  0  0  0  0
 19 21  2  0  0  0  0
 21 22  1  0  0  0  0
M  END
$$$$

 OpenBabel12191814062D

 23 26  0  0  0  0  0  0  0  0999 V2000
    1.9594    3.9102    0.0000 C   0  0  0  0  0  0  0  0  0  0  0  0
    2.3173    3.1669    0.0000 N   0  0  0  0  0  0  0  0  0  0  0  0
    3.1400    3.1053    0.0000 C   0  0  0  0  0  0  0  0  0  0  0  0
    3.4980    2.3620    0.0000 C   0  0  0  0  0  0  0  0  0  0  0  0
    3.0332    1.6803    0.0000 N   0  0  0  0  0  0  0  0  0  0  0  0
    2.2105    1.7420    0.0000 C   0  0  0  0  0  0  0  0  0  0  0  0
    1.8526    2.4853    0.0000 C   0  0  0  0  0  0  0  0  0  0  0  0
    3.3912    0.9370    0.0000 C   0  0  0  0  0  0  0  0  0  0  0  0
    4.2162    0.9370    0.0000 N   0  0  0  0  0  0  0  0  0  0  0  0
    4.7305    0.2920    0.0000 C   0  0  0  0  0  0  0  0  0  0  0  0
    5.5189    0.5352    0.0000 C   0  0  0  0  0  0  0  0  0  0  0  0
    6.1237   -0.0260    0.0000 C   0  0  0  0  0  0  0  0  0  0  0  0
    5.9401   -0.8303    0.0000 C   0  0  0  0  0  0  0  0  0  0  0  0
    5.1517   -1.0735    0.0000 C   0  0  0  0  0  0  0  0  0  0  0  0
    4.5470   -0.5123    0.0000 C   0  0  0  0  0  0  0  0  0  0  0  0
    3.8037   -0.8703    0.0000 O   0  0  0  0  0  0  0  0  0  0  0  0
    3.0604   -0.5123    0.0000 C   0  0  0  0  0  0  0  0  0  0  0  0
    2.4556   -1.0735    0.0000 C   0  0  0  0  0  0  0  0  0  0  0  0
    1.6673   -0.8303    0.0000 C   0  0  0  0  0  0  0  0  0  0  0  0
    1.4837   -0.0260    0.0000 C   0  0  0  0  0  0  0  0  0  0  0  0
    0.6953    0.2172    0.0000 Cl  0  0  0  0  0  0  0  0  0  0  0  0
    2.0884    0.5352    0.0000 C   0  0  0  0  0  0  0  0  0  0  0  0
    2.8768    0.2920    0.0000 C   0  0  0  0  0  0  0  0  0  0  0  0
  1  2  1  0  0  0  0
  2  3  1  0  0  0  0
  2  7  1  0  0  0  0
  3  4  1  0  0  0  0
  4  5  1  0  0  0  0
  5  6  1  0  0  0  0
  5  8  1  0  0  0  0
  6  7  1  0  0  0  0
  8  9  2  0  0  0  0
  8 23  1  0  0  0  0
  9 10  1  0  0  0  0
 10 11  2  0  0  0  0
 10 15  1  0  0  0  0
 11 12  1  0  0  0  0
 12 13  2  0  0  0  0
 13 14  1  0  0  0  0
 14 15  2  0  0  0  0
 15 16  1  0  0  0  0
 16 17  1  0  0  0  0
 17 18  2  0  0  0  0
 17 23  1  0  0  0  0
 18 19  1  0  0  0  0
 19 20  2  0  0  0  0
 20 21  1  0  0  0  0
 20 22  1  0  0  0  0
 22 23  2  0  0  0  0
M  END
$$$$

 OpenBabel12191814062D

 23 26  0  0  0  0  0  0  0  0999 V2000
    1.9594    3.9102    0.0000 C   0  0  0  0  0  0  0  0  0  0  0  0
    2.3173    3.1669    0.0000 N   0  0  0  0  0  0  0  0  0  0  0  0
    3.1400    3.1053    0.0000 C   0  0  0  0  0  0  0  0  0  0  0  0
    3.4980    2.3620    0.0000 C   0  0  0  0  0  0  0  0  0  0  0  0
    3.0332    1.6803    0.0000 N   0  0  0  0  0  0  0  0  0  0  0  0
    2.2105    1.7420    0.0000 C   0  0  0  0  0  0  0  0  0  0  0  0
    1.8526    2.4853    0.0000 C   0  0  0  0  0  0  0  0  0  0  0  0
    3.3912    0.9370    0.0000 C   0  0  0  0  0  0  0  0  0  0  0  0
    4.2162    0.9370    0.0000 N   0  0  0  0  0  0  0  0  0  0  0  0
    4.7305    0.2920    0.0000 C   0  0  0  0  0  0  0  0  0  0  0  0
    5.5189    0.5352    0.0000 C   0  0  0  0  0  0  0  0  0  0  0  0
    6.1237   -0.0260    0.0000 C   0  0  0  0  0  0  0  0  0  0  0  0
    5.9401   -0.8303    0.0000 C   0  0  0  0  0  0  0  0  0  0  0  0
    5.1517   -1.0735    0.0000 C   0  0  0  0  0  0  0  0  0  0  0  0
    4.5470   -0.5123    0.0000 C   0  0  0  0  0  0  0  0  0  0  0  0
    3.8037   -0.8703    0.0000 S   0  0  0  0  0  0  0  0  0  0  0  0
    3.0604   -0.5123    0.0000 C   0  0  0  0  0  0  0  0  0  0  0  0
    2.4556   -1.0735    0.0000 C   0  0  0  0  0  0  0  0  0  0  0  0
    1.6673   -0.8303    0.0000 C   0  0  0  0  0  0  0  0  0  0  0  0
    1.4837   -0.0260    0.0000 C   0  0  0  0  0  0  0  0  0  0  0  0
    0.6953    0.2172    0.0000 C   0  0  0  0  0  0  0  0  0  0  0  0
    2.0884    0.5352    0.0000 C   0  0  0  0  0  0  0  0  0  0  0  0
    2.8768    0.2920    0.0000 C   0  0  0  0  0  0  0  0  0  0  0  0
  1  2  1  0  0  0  0
  2  3  1  0  0  0  0
  2  7  1  0  0  0  0
  3  4  1  0  0  0  0
  4  5  1  0  0  0  0
  5  6  1  0  0  0  0
  5  8  1  0  0  0  0
  6  7  1  0  0  0  0
  8  9  2  0  0  0  0
  8 23  1  0  0  0  0
  9 10  1  0  0  0  0
 10 11  2  0  0  0  0
 10 15  1  0  0  0  0
 11 12  1  0  0  0  0
 12 13  2  0  0  0  0
 13 14  1  0  0  0  0
 14 15  2  0  0  0  0
 15 16  1  0  0  0  0
 16 17  1  0  0  0  0
 17 18  2  0  0  0  0
 17 23  1  0  0  0  0
 18 19  1  0  0  0  0
 19 20  2  0  0  0  0
 20 21  1  0  0  0  0
 20 22  1  0  0  0  0
 22 23  2  0  0  0  0
M  END
$$$$

 OpenBabel12191814062D

 23 26  0  0  0  0  0  0  0  0999 V2000
    1.9594    3.9102    0.0000 C   0  0  0  0  0  0  0  0  0  0  0  0
    2.3173    3.1669    0.0000 N   0  0  0  0  0  0  0  0  0  0  0  0
    3.1400    3.1053    0.0000 C   0  0  0  0  0  0  0  0  0  0  0  0
    3.4980    2.3620    0.0000 C   0  0  0  0  0  0  0  0  0  0  0  0
    3.0332    1.6803    0.0000 N   0  0  0  0  0  0  0  0  0  0  0  0
    2.2105    1.7420    0.0000 C   0  0  0  0  0  0  0  0  0  0  0  0
    1.8526    2.4853    0.0000 C   0  0  0  0  0  0  0  0  0  0  0  0
    3.3912    0.9370    0.0000 C   0  0  0  0  0  0  0  0  0  0  0  0
    4.2162    0.9370    0.0000 N   0  0  0  0  0  0  0  0  0  0  0  0
    4.7305    0.2920    0.0000 C   0  0  0  0  0  0  0  0  0  0  0  0
    5.5189    0.5352    0.0000 C   0  0  0  0  0  0  0  0  0  0  0  0
    6.1237   -0.0260    0.0000 C   0  0  0  0  0  0  0  0  0  0  0  0
    5.9401   -0.8303    0.0000 C   0  0  0  0  0  0  0  0  0  0  0  0
    5.1517   -1.0735    0.0000 C   0  0  0  0  0  0  0  0  0  0  0  0
    4.5470   -0.5123    0.0000 C   0  0  0  0  0  0  0  0  0  0  0  0
    3.8037   -0.8703    0.0000 S   0  0  0  0  0  0  0  0  0  0  0  0
    3.0604   -0.5123    0.0000 C   0  0  0  0  0  0  0  0  0  0  0  0
    2.4556   -1.0735    0.0000 C   0  0  0  0  0  0  0  0  0  0  0  0
    1.6673   -0.8303    0.0000 C   0  0  0  0  0  0  0  0  0  0  0  0
    1.4837   -0.0260    0.0000 C   0  0  0  0  0  0  0  0  0  0  0  0
    0.6953    0.2172    0.0000 Cl  0  0  0  0  0  0  0  0  0  0  0  0
    2.0884    0.5352    0.0000 C   0  0  0  0  0  0  0  0  0  0  0  0
    2.8768    0.2920    0.0000 C   0  0  0  0  0  0  0  0  0  0  0  0
  1  2  1  0  0  0  0
  2  3  1  0  0  0  0
  2  7  1  0  0  0  0
  3  4  1  0  0  0  0
  4  5  1  0  0  0  0
  5  6  1  0  0  0  0
  5  8  1  0  0  0  0
  6  7  1  0  0  0  0
  8  9  2  0  0  0  0
  8 23  1  0  0  0  0
  9 10  1  0  0  0  0
 10 11  2  0  0  0  0
 10 15  1  0  0  0  0
 11 12  1  0  0  0  0
 12 13  2  0  0  0  0
 13 14  1  0  0  0  0
 14 15  2  0  0  0  0
 15 16  1  0  0  0  0
 16 17  1  0  0  0  0
 17 18  2  0  0  0  0
 17 23  1  0  0  0  0
 18 19  1  0  0  0  0
 19 20  2  0  0  0  0
 20 21  1  0  0  0  0
 20 22  1  0  0  0  0
 22 23  2  0  0  0  0
M  END
$$$$

 OpenBabel12191814062D

 31 35  0  0  0  0  0  0  0  0999 V2000
   -2.1434   -2.8875    0.0000 C   0  0  0  0  0  0  0  0  0  0  0  0
   -1.4289   -2.4750    0.0000 N   0  0  0  0  0  0  0  0  0  0  0  0
   -1.4289   -1.6500    0.0000 C   0  0  0  0  0  0  0  0  0  0  0  0
   -0.7145   -1.2375    0.0000 C   0  0  0  0  0  0  0  0  0  0  0  0
    0.0000   -1.6500    0.0000 N   0  0  0  0  0  0  0  0  0  0  0  0
    0.0000   -2.4750    0.0000 C   0  0  0  0  0  0  0  0  0  0  0  0
   -0.7145   -2.8875    0.0000 C   0  0  0  0  0  0  0  0  0  0  0  0
    0.7145   -1.2375    0.0000 C   0  0  0  0  0  0  0  0  0  0  0  0
    0.7145   -0.4125    0.0000 N   0  0  0  0  0  0  0  0  0  0  0  0
    1.4289    0.0000    0.0000 C   0  0  0  0  0  0  0  0  0  0  0  0
    1.4289    0.8250    0.0000 C   0  0  0  0  0  0  0  0  0  0  0  0
    0.7145    1.2375    0.0000 C   0  0  0  0  0  0  0  0  0  0  0  0
    0.7145    2.0625    0.0000 C   0  0  0  0  0  0  0  0  0  0  0  0
    1.4289    2.4750    0.0000 C   0  0  0  0  0  0  0  0  0  0  0  0
    2.1434    2.0625    0.0000 C   0  0  0  0  0  0  0  0  0  0  0  0
    2.1434    1.2375    0.0000 C   0  0  0  0  0  0  0  0  0  0  0  0
    2.1434   -0.4125    0.0000 C   0  0  0  0  0  0  0  0  0  0  0  0
    2.8579    0.0000    0.0000 C   0  0  0  0  0  0  0  0  0  0  0  0
    3.5724   -0.4125    0.0000 C   0  0  0  0  0  0  0  0  0  0  0  0
    3.5724   -1.2375    0.0000 C   0  0  0  0  0  0  0  0  0  0  0  0
    2.8579   -1.6500    0.0000 C   0  0  0  0  0  0  0  0  0  0  0  0
    2.1434   -1.2375    0.0000 C   0  0  0  0  0  0  0  0  0  0  0  0
    1.4289   -1.6500    0.0000 C   0  0  0  0  0  0  0  0  0  0  0  0
    1.4289   -2.4750    0.0000 C   0  0  0  0  0  0  0  0  0  0  0  0
    2.1434   -2.8875    0.0000 N   0  0  0  0  0  0  0  0  0  0  0  0
    2.1434   -3.7125    0.0000 N   0  0  0  0  0  0  0  0  0  0  0  0
    2.8109   -4.1974    0.0000 C   0  0  0  0  0  0  0  0  0  0  0  0
    2.5559   -4.9820    0.0000 C   0  0  0  0  0  0  0  0  0  0  0  0
    1.7309   -4.9820    0.0000 O   0  0  0  0  0  0  0  0  0  0  0  0
    1.4760   -4.1974    0.0000 C   0  0  0  0  0  0  0  0  0  0  0  0
    0.6914   -3.9425    0.0000 O   0  0  0  0  0  0  0  0  0  0  0  0
  1  2  1  0  0  0  0
  2  3  1  0  0  0  0
  2  7  1  0  0  0  0
  3  4  1  0  0  0  0
  4  5  1  0  0  0  0
  5  6  1  0  0  0  0
  5  8  1  0  0  0  0
  6  7  1  0  0  0  0
  8  9  2  0  0  0  0
  8 23  1  0  0  0  0
  9 10  1  0  0  0  0
 10 11  1  0  0  0  0
 10 17  2  0  0  0  0
 11 12  2  0  0  0  0
 11 16  1  0  0  0  0
 12 13  1  0  0  0  0
 13 14  2  0  0  0  0
 14 15  1  0  0  0  0
 15 16  2  0  0  0  0
 17 18  1  0  0  0  0
 17 22  1  0  0  0  0
 18 19  2  0  0  0  0
 19 20  1  0  0  0  0
 20 21  2  0  0  0  0
 21 22  1  0  0  0  0
 22 23  2  0  0  0  0
 23 24  1  0  0  0  0
 24 25  2  0  0  0  0
 25 26  1  0  0  0  0
 26 27  1  0  0  0  0
 26 30  1  0  0  0  0
 27 28  1  0  0  0  0
 28 29  1  0  0  0  0
 29 30  1  0  0  0  0
 30 31  2  0  0  0  0
M  END
$$$$

 OpenBabel12191814062D

 36 40  0  0  0  0  0  0  0  0999 V2000
   -2.1434   -2.8875    0.0000 C   0  0  0  0  0  0  0  0  0  0  0  0
   -1.4289   -2.4750    0.0000 N   0  0  0  0  0  0  0  0  0  0  0  0
   -1.4289   -1.6500    0.0000 C   0  0  0  0  0  0  0  0  0  0  0  0
   -0.7145   -1.2375    0.0000 C   0  0  0  0  0  0  0  0  0  0  0  0
    0.0000   -1.6500    0.0000 N   0  0  0  0  0  0  0  0  0  0  0  0
    0.0000   -2.4750    0.0000 C   0  0  0  0  0  0  0  0  0  0  0  0
   -0.7145   -2.8875    0.0000 C   0  0  0  0  0  0  0  0  0  0  0  0
    0.7145   -1.2375    0.0000 C   0  0  0  0  0  0  0  0  0  0  0  0
    0.7145   -0.4125    0.0000 N   0  0  0  0  0  0  0  0  0  0  0  0
    1.4289    0.0000    0.0000 C   0  0  0  0  0  0  0  0  0  0  0  0
    1.4289    0.8250    0.0000 N   0  0  0  0  0  0  0  0  0  0  0  0
    0.7145    1.2375    0.0000 C   0  0  0  0  0  0  0  0  0  0  0  0
    0.7145    2.0625    0.0000 C   0  0  0  0  0  0  0  0  0  0  0  0
    1.4289    2.4750    0.0000 C   0  0  0  0  0  0  0  0  0  0  0  0
    2.1434    2.0625    0.0000 C   0  0  0  0  0  0  0  0  0  0  0  0
    2.1434    1.2375    0.0000 C   0  0  0  0  0  0  0  0  0  0  0  0
    2.1434   -0.4125    0.0000 C   0  0  0  0  0  0  0  0  0  0  0  0
    2.8579    0.0000    0.0000 N   0  0  0  0  0  0  0  0  0  0  0  0
    3.5724   -0.4125    0.0000 C   0  0  0  0  0  0  0  0  0  0  0  0
    3.5724   -1.2375    0.0000 N   0  0  0  0  0  0  0  0  0  0  0  0
    2.8579   -1.6500    0.0000 C   0  0  0  0  0  0  0  0  0  0  0  0
    2.8579   -2.4750    0.0000 N   0  0  0  0  0  0  0  0  0  0  0  0
    3.5724   -2.8875    0.0000 C   0  0  0  0  0  0  0  0  0  0  0  0
    3.5724   -3.7125    0.0000 C   0  0  0  0  0  0  0  0  0  0  0  0
    2.8579   -4.1250    0.0000 C   0  0  0  0  0  0  0  0  0  0  0  0
    2.1434   -3.7125    0.0000 C   0  0  0  0  0  0  0  0  0  0  0  0
    2.1434   -2.8875    0.0000 C   0  0  0  0  0  0  0  0  0  0  0  0
    2.1434   -1.2375    0.0000 C   0  0  0  0  0  0  0  0  0  0  0  0
    1.4289   -1.6500    0.0000 N   0  0  0  0  0  0  0  0  0  0  0  0
    4.2868   -0.0000    0.0000 N   0  0  0  0  0  0  0  0  0  0  0  0
    4.2868    0.8250    0.0000 C   0  0  0  0  0  0  0  0  0  0  0  0
    5.0013    1.2375    0.0000 C   0  0  0  0  0  0  0  0  0  0  0  0
    5.0013    2.0625    0.0000 O   0  0  0  0  0  0  0  0  0  0  0  0
    5.0013   -0.4125    0.0000 C   0  0  0  0  0  0  0  0  0  0  0  0
    5.7158   -0.0000    0.0000 C   0  0  0  0  0  0  0  0  0  0  0  0
    6.4302   -0.4125    0.0000 O   0  0  0  0  0  0  0  0  0  0  0  0
  1  2  1  0  0  0  0
  2  3  1  0  0  0  0
  2  7  1  0  0  0  0
  3  4  1  0  0  0  0
  4  5  1  0  0  0  0
  5  6  1  0  0  0  0
  5  8  1  0  0  0  0
  6  7  1  0  0  0  0
  8  9  2  0  0  0  0
  8 29  1  0  0  0  0
  9 10  1  0  0  0  0
 10 11  1  0  0  0  0
 10 17  2  0  0  0  0
 11 12  1  0  0  0  0
 11 16  1  0  0  0  0
 12 13  1  0  0  0  0
 13 14  1  0  0  0  0
 14 15  1  0  0  0  0
 15 16  1  0  0  0  0
 17 18  1  0  0  0  0
 17 28  1  0  0  0  0
 18 19  2  0  0  0  0
 19 20  1  0  0  0  0
 19 30  1  0  0  0  0
 20 21  2  0  0  0  0
 21 22  1  0  0  0  0
 21 28  1  0  0  0  0
 22 23  1  0  0  0  0
 22 27  1  0  0  0  0
 23 24  1  0  0  0  0
 24 25  1  0  0  0  0
 25 26  1  0  0  0  0
 26 27  1  0  0  0  0
 28 29  2  0  0  0  0
 30 31  1  0  0  0  0
 30 34  1  0  0  0  0
 31 32  1  0  0  0  0
 32 33  1  0  0  0  0
 34 35  1  0  0  0  0
 35 36  1  0  0  0  0
M  END
$$$$

 OpenBabel12191814062D

 37 41  0  0  0  0  0  0  0  0999 V2000
    7.8592   -5.3625    0.0000 C   0  0  0  0  0  0  0  0  0  0  0  0
    7.8592   -6.1875    0.0000 N   0  0  0  0  0  0  0  0  0  0  0  0
    8.5737   -6.6000    0.0000 C   0  0  0  0  0  0  0  0  0  0  0  0
    8.5737   -7.4250    0.0000 C   0  0  0  0  0  0  0  0  0  0  0  0
    7.8592   -7.8375    0.0000 N   0  0  0  0  0  0  0  0  0  0  0  0
    7.8592   -8.6625    0.0000 C   0  0  0  0  0  0  0  0  0  0  0  0
    7.1447   -9.0750    0.0000 C   0  0  0  0  0  0  0  0  0  0  0  0
    7.1447   -9.9000    0.0000 C   0  0  0  0  0  0  0  0  0  0  0  0
    6.4302  -10.3125    0.0000 C   0  0  0  0  0  0  0  0  0  0  0  0
    5.7158   -9.9000    0.0000 C   0  0  0  0  0  0  0  0  0  0  0  0
    5.7158   -9.0750    0.0000 C   0  0  0  0  0  0  0  0  0  0  0  0
    6.4302   -8.6625    0.0000 C   0  0  0  0  0  0  0  0  0  0  0  0
    5.0013  -10.3125    0.0000 C   0  0  0  0  0  0  0  0  0  0  0  0
    5.0013  -11.1375    0.0000 O   0  0  0  0  0  0  0  0  0  0  0  0
    4.2868   -9.9000    0.0000 N   0  0  0  0  0  0  0  0  0  0  0  0
    3.5724  -10.3125    0.0000 C   0  0  0  0  0  0  0  0  0  0  0  0
    3.5724  -11.1375    0.0000 C   0  0  0  0  0  0  0  0  0  0  0  0
    2.8579  -11.5500    0.0000 C   0  0  0  0  0  0  0  0  0  0  0  0
    2.1434  -11.1375    0.0000 C   0  0  0  0  0  0  0  0  0  0  0  0
    1.4289  -11.5500    0.0000 C   0  0  0  0  0  0  0  0  0  0  0  0
    2.1434  -10.3125    0.0000 C   0  0  0  0  0  0  0  0  0  0  0  0
    1.4289   -9.9000    0.0000 N   0  0  0  0  0  0  0  0  0  0  0  0
    0.7145  -10.3125    0.0000 C   0  0  0  0  0  0  0  0  0  0  0  0
    0.7145  -11.1375    0.0000 N   0  0  0  0  0  0  0  0  0  0  0  0
   -0.0000  -11.5500    0.0000 C   0  0  0  0  0  0  0  0  0  0  0  0
   -0.7145  -11.1375    0.0000 C   0  0  0  0  0  0  0  0  0  0  0  0
   -0.7145  -10.3125    0.0000 C   0  0  0  0  0  0  0  0  0  0  0  0
    0.0000   -9.9000    0.0000 N   0  0  0  0  0  0  0  0  0  0  0  0
   -1.4289   -9.9000    0.0000 C   0  0  0  0  0  0  0  0  0  0  0  0
   -2.1434  -10.3125    0.0000 C   0  0  0  0  0  0  0  0  0  0  0  0
   -2.8579   -9.9000    0.0000 C   0  0  0  0  0  0  0  0  0  0  0  0
   -2.8579   -9.0750    0.0000 C   0  0  0  0  0  0  0  0  0  0  0  0
   -2.1434   -8.6625    0.0000 N   0  0  0  0  0  0  0  0  0  0  0  0
   -1.4289   -9.0750    0.0000 C   0  0  0  0  0  0  0  0  0  0  0  0
    2.8579   -9.9000    0.0000 C   0  0  0  0  0  0  0  0  0  0  0  0
    7.1447   -7.4250    0.0000 C   0  0  0  0  0  0  0  0  0  0  0  0
    7.1447   -6.6000    0.0000 C   0  0  0  0  0  0  0  0  0  0  0  0
  1  2  1  0  0  0  0
  2  3  1  0  0  0  0
  2 37  1  0  0  0  0
  3  4  1  0  0  0  0
  4  5  1  0  0  0  0
  5  6  1  0  0  0  0
  5 36  1  0  0  0  0
  6  7  1  0  0  0  0
  7  8  2  0  0  0  0
  7 12  1  0  0  0  0
  8  9  1  0  0  0  0
  9 10  2  0  0  0  0
 10 11  1  0  0  0  0
 10 13  1  0  0  0  0
 11 12  2  0  0  0  0
 13 14  2  0  0  0  0
 13 15  1  0  0  0  0
 15 16  1  0  0  0  0
 16 17  2  0  0  0  0
 16 35  1  0  0  0  0
 17 18  1  0  0  0  0
 18 19  2  0  0  0  0
 19 20  1  0  0  0  0
 19 21  1  0  0  0  0
 21 22  1  0  0  0  0
 21 35  2  0  0  0  0
 22 23  1  0  0  0  0
 23 24  2  0  0  0  0
 23 28  1  0  0  0  0
 24 25  1  0  0  0  0
 25 26  2  0  0  0  0
 26 27  1  0  0  0  0
 27 28  2  0  0  0  0
 27 29  1  0  0  0  0
 29 30  2  0  0  0  0
 29 34  1  0  0  0  0
 30 31  1  0  0  0  0
 31 32  2  0  0  0  0
 32 33  1  0  0  0  0
 33 34  2  0  0  0  0
 36 37  1  0  0  0  0
M  END
$$$$

 OpenBabel12191814062D

 26 29  0  0  0  0  0  0  0  0999 V2000
    0.7145    7.0125    0.0000 C   0  0  0  0  0  0  0  0  0  0  0  0
    0.7145    6.1875    0.0000 N   0  0  0  0  0  0  0  0  0  0  0  0
    1.4289    5.7750    0.0000 C   0  0  0  0  0  0  0  0  0  0  0  0
    1.4289    4.9500    0.0000 C   0  0  0  0  0  0  0  0  0  0  0  0
    0.7145    4.5375    0.0000 N   0  0  0  0  0  0  0  0  0  0  0  0
    0.7145    3.7125    0.0000 C   0  0  0  0  0  0  0  0  0  0  0  0
    1.4289    3.3000    0.0000 C   0  0  0  0  0  0  0  0  0  0  0  0
    1.4289    2.4750    0.0000 C   0  0  0  0  0  0  0  0  0  0  0  0
    2.1434    2.0625    0.0000 C   0  0  0  0  0  0  0  0  0  0  0  0
    2.1434    1.2375    0.0000 N   0  0  0  0  0  0  0  0  0  0  0  0
    2.8579    0.8250    0.0000 C   0  0  0  0  0  0  0  0  0  0  0  0
    3.5724    1.2375    0.0000 C   0  0  0  0  0  0  0  0  0  0  0  0
    4.2868    0.8250    0.0000 C   0  0  0  0  0  0  0  0  0  0  0  0
    4.2868   -0.0000    0.0000 C   0  0  0  0  0  0  0  0  0  0  0  0
    3.5724   -0.4125    0.0000 C   0  0  0  0  0  0  0  0  0  0  0  0
    2.8579    0.0000    0.0000 C   0  0  0  0  0  0  0  0  0  0  0  0
    2.1434   -0.4125    0.0000 C   0  0  0  0  0  0  0  0  0  0  0  0
    2.1434   -1.2375    0.0000 O   0  0  0  0  0  0  0  0  0  0  0  0
    1.4289    0.0000    0.0000 C   0  0  0  0  0  0  0  0  0  0  0  0
    0.7145   -0.4125    0.0000 C   0  0  0  0  0  0  0  0  0  0  0  0
    0.0000    0.0000    0.0000 C   0  0  0  0  0  0  0  0  0  0  0  0
    0.0000    0.8250    0.0000 C   0  0  0  0  0  0  0  0  0  0  0  0
    0.7145    1.2375    0.0000 C   0  0  0  0  0  0  0  0  0  0  0  0
    1.4289    0.8250    0.0000 C   0  0  0  0  0  0  0  0  0  0  0  0
   -0.0000    4.9500    0.0000 C   0  0  0  0  0  0  0  0  0  0  0  0
   -0.0000    5.7750    0.0000 C   0  0  0  0  0  0  0  0  0  0  0  0
  1  2  1  0  0  0  0
  2  3  1  0  0  0  0
  2 26  1  0  0  0  0
  3  4  1  0  0  0  0
  4  5  1  0  0  0  0
  5  6  1  0  0  0  0
  5 25  1  0  0  0  0
  6  7  1  0  0  0  0
  7  8  1  0  0  0  0
  8  9  1  0  0  0  0
  9 10  1  0  0  0  0
 10 11  1  0  0  0  0
 10 24  1  0  0  0  0
 11 12  2  0  0  0  0
 11 16  1  0  0  0  0
 12 13  1  0  0  0  0
 13 14  2  0  0  0  0
 14 15  1  0  0  0  0
 15 16  2  0  0  0  0
 16 17  1  0  0  0  0
 17 18  2  0  0  0  0
 17 19  1  0  0  0  0
 19 20  2  0  0  0  0
 19 24  1  0  0  0  0
 20 21  1  0  0  0  0
 21 22  2  0  0  0  0
 22 23  1  0  0  0  0
 23 24  2  0  0  0  0
 25 26  1  0  0  0  0
M  END
$$$$

 OpenBabel12191814062D

 25 28  0  0  0  0  0  0  0  0999 V2000
   -1.4289    4.9500    0.0000 C   0  0  0  0  0  0  0  0  0  0  0  0
   -0.7145    4.5375    0.0000 N   0  0  0  0  0  0  0  0  0  0  0  0
   -0.0000    4.9500    0.0000 C   0  0  0  0  0  0  0  0  0  0  0  0
    0.7145    4.5375    0.0000 C   0  0  0  0  0  0  0  0  0  0  0  0
    0.7145    3.7125    0.0000 N   0  0  0  0  0  0  0  0  0  0  0  0
    1.4289    3.3000    0.0000 C   0  0  0  0  0  0  0  0  0  0  0  0
    1.4289    2.4750    0.0000 C   0  0  0  0  0  0  0  0  0  0  0  0
    2.1434    2.0625    0.0000 C   0  0  0  0  0  0  0  0  0  0  0  0
    2.1434    1.2375    0.0000 N   0  0  0  0  0  0  0  0  0  0  0  0
    2.8579    0.8250    0.0000 C   0  0  0  0  0  0  0  0  0  0  0  0
    3.5724    1.2375    0.0000 C   0  0  0  0  0  0  0  0  0  0  0  0
    4.2868    0.8250    0.0000 C   0  0  0  0  0  0  0  0  0  0  0  0
    4.2868   -0.0000    0.0000 C   0  0  0  0  0  0  0  0  0  0  0  0
    3.5724   -0.4125    0.0000 C   0  0  0  0  0  0  0  0  0  0  0  0
    2.8579    0.0000    0.0000 C   0  0  0  0  0  0  0  0  0  0  0  0
    2.1434   -0.4125    0.0000 C   0  0  0  0  0  0  0  0  0  0  0  0
    2.1434   -1.2375    0.0000 O   0  0  0  0  0  0  0  0  0  0  0  0
    1.4289    0.0000    0.0000 C   0  0  0  0  0  0  0  0  0  0  0  0
    0.7145   -0.4125    0.0000 C   0  0  0  0  0  0  0  0  0  0  0  0
    0.0000    0.0000    0.0000 C   0  0  0  0  0  0  0  0  0  0  0  0
    0.0000    0.8250    0.0000 C   0  0  0  0  0  0  0  0  0  0  0  0
    0.7145    1.2375    0.0000 C   0  0  0  0  0  0  0  0  0  0  0  0
    1.4289    0.8250    0.0000 C   0  0  0  0  0  0  0  0  0  0  0  0
   -0.0000    3.3000    0.0000 C   0  0  0  0  0  0  0  0  0  0  0  0
   -0.7145    3.7125    0.0000 C   0  0  0  0  0  0  0  0  0  0  0  0
  1  2  1  0  0  0  0
  2  3  1  0  0  0  0
  2 25  1  0  0  0  0
  3  4  1  0  0  0  0
  4  5  1  0  0  0  0
  5  6  1  0  0  0  0
  5 24  1  0  0  0  0
  6  7  1  0  0  0  0
  7  8  1  0  0  0  0
  8  9  1  0  0  0  0
  9 10  1  0  0  0  0
  9 23  1  0  0  0  0
 10 11  2  0  0  0  0
 10 15  1  0  0  0  0
 11 12  1  0  0  0  0
 12 13  2  0  0  0  0
 13 14  1  0  0  0  0
 14 15  2  0  0  0  0
 15 16  1  0  0  0  0
 16 17  2  0  0  0  0
 16 18  1  0  0  0  0
 18 19  2  0  0  0  0
 18 23  1  0  0  0  0
 19 20  1  0  0  0  0
 20 21  2  0  0  0  0
 21 22  1  0  0  0  0
 22 23  2  0  0  0  0
 24 25  1  0  0  0  0
M  END
$$$$

 OpenBabel12191814062D

 28 31  0  0  0  0  0  0  0  0999 V2000
    5.7158    4.9500    0.0000 C   0  0  0  0  0  0  0  0  0  0  0  0
    5.0013    4.5375    0.0000 N   0  0  0  0  0  0  0  0  0  0  0  0
    5.0013    3.7125    0.0000 C   0  0  0  0  0  0  0  0  0  0  0  0
    4.2868    3.3000    0.0000 C   0  0  0  0  0  0  0  0  0  0  0  0
    3.5724    3.7125    0.0000 N   0  0  0  0  0  0  0  0  0  0  0  0
    2.8579    3.3000    0.0000 C   0  0  0  0  0  0  0  0  0  0  0  0
    2.8579    2.4750    0.0000 C   0  0  0  0  0  0  0  0  0  0  0  0
    2.1434    2.0625    0.0000 C   0  0  0  0  0  0  0  0  0  0  0  0
    2.1434    1.2375    0.0000 N   0  0  0  0  0  0  0  0  0  0  0  0
    2.8579    0.8250    0.0000 C   0  0  0  0  0  0  0  0  0  0  0  0
    3.5724    1.2375    0.0000 C   0  0  0  0  0  0  0  0  0  0  0  0
    4.2868    0.8250    0.0000 C   0  0  0  0  0  0  0  0  0  0  0  0
    4.2868   -0.0000    0.0000 C   0  0  0  0  0  0  0  0  0  0  0  0
    3.5724   -0.4125    0.0000 C   0  0  0  0  0  0  0  0  0  0  0  0
    2.8579    0.0000    0.0000 C   0  0  0  0  0  0  0  0  0  0  0  0
    2.1434   -0.4125    0.0000 S   0  0  0  0  0  0  0  0  0  0  0  0
    1.4289    0.0000    0.0000 C   0  0  0  0  0  0  0  0  0  0  0  0
    0.7145   -0.4125    0.0000 C   0  0  0  0  0  0  0  0  0  0  0  0
    0.0000    0.0000    0.0000 C   0  0  0  0  0  0  0  0  0  0  0  0
    0.0000    0.8250    0.0000 C   0  0  0  0  0  0  0  0  0  0  0  0
    0.7145    1.2375    0.0000 C   0  0  0  0  0  0  0  0  0  0  0  0
    1.4289    0.8250    0.0000 C   0  0  0  0  0  0  0  0  0  0  0  0
   -0.7145    1.2375    0.0000 C   0  0  0  0  0  0  0  0  0  0  0  0
   -1.4289    1.6500    0.0000 F   0  0  0  0  0  0  0  0  0  0  0  0
   -0.3020    1.9520    0.0000 F   0  0  0  0  0  0  0  0  0  0  0  0
   -1.1270    0.5230    0.0000 F   0  0  0  0  0  0  0  0  0  0  0  0
    3.5724    4.5375    0.0000 C   0  0  0  0  0  0  0  0  0  0  0  0
    4.2868    4.9500    0.0000 C   0  0  0  0  0  0  0  0  0  0  0  0
  1  2  1  0  0  0  0
  2  3  1  0  0  0  0
  2 28  1  0  0  0  0
  3  4  1  0  0  0  0
  4  5  1  0  0  0  0
  5  6  1  0  0  0  0
  5 27  1  0  0  0  0
  6  7  1  0  0  0  0
  7  8  1  0  0  0  0
  8  9  1  0  0  0  0
  9 10  1  0  0  0  0
  9 22  1  0  0  0  0
 10 11  2  0  0  0  0
 10 15  1  0  0  0  0
 11 12  1  0  0  0  0
 12 13  2  0  0  0  0
 13 14  1  0  0  0  0
 14 15  2  0  0  0  0
 15 16  1  0  0  0  0
 16 17  1  0  0  0  0
 17 18  2  0  0  0  0
 17 22  1  0  0  0  0
 18 19  1  0  0  0  0
 19 20  2  0  0  0  0
 20 21  1  0  0  0  0
 20 23  1  0  0  0  0
 21 22  2  0  0  0  0
 23 24  1  0  0  0  0
 23 25  1  0  0  0  0
 23 26  1  0  0  0  0
 27 28  1  0  0  0  0
M  END
$$$$

 OpenBabel12191814062D

 25 28  0  0  0  0  0  0  0  0999 V2000
   -1.4289    4.9500    0.0000 C   0  0  0  0  0  0  0  0  0  0  0  0
   -0.7145    4.5375    0.0000 N   0  0  0  0  0  0  0  0  0  0  0  0
   -0.0000    4.9500    0.0000 C   0  0  0  0  0  0  0  0  0  0  0  0
    0.7145    4.5375    0.0000 C   0  0  0  0  0  0  0  0  0  0  0  0
    0.7145    3.7125    0.0000 N   0  0  0  0  0  0  0  0  0  0  0  0
    1.4289    3.3000    0.0000 C   0  0  0  0  0  0  0  0  0  0  0  0
    1.4289    2.4750    0.0000 C   0  0  0  0  0  0  0  0  0  0  0  0
    2.1434    2.0625    0.0000 C   0  0  0  0  0  0  0  0  0  0  0  0
    2.1434    1.2375    0.0000 N   0  0  0  0  0  0  0  0  0  0  0  0
    2.8579    0.8250    0.0000 C   0  0  0  0  0  0  0  0  0  0  0  0
    3.5724    1.2375    0.0000 C   0  0  0  0  0  0  0  0  0  0  0  0
    4.2868    0.8250    0.0000 C   0  0  0  0  0  0  0  0  0  0  0  0
    4.2868   -0.0000    0.0000 C   0  0  0  0  0  0  0  0  0  0  0  0
    3.5724   -0.4125    0.0000 C   0  0  0  0  0  0  0  0  0  0  0  0
    2.8579    0.0000    0.0000 C   0  0  0  0  0  0  0  0  0  0  0  0
    2.1434   -0.4125    0.0000 S   0  0  0  0  0  0  0  0  0  0  0  0
    1.4289    0.0000    0.0000 C   0  0  0  0  0  0  0  0  0  0  0  0
    0.7145   -0.4125    0.0000 C   0  0  0  0  0  0  0  0  0  0  0  0
    0.0000    0.0000    0.0000 C   0  0  0  0  0  0  0  0  0  0  0  0
    0.0000    0.8250    0.0000 C   0  0  0  0  0  0  0  0  0  0  0  0
   -0.7145    1.2375    0.0000 Cl  0  0  0  0  0  0  0  0  0  0  0  0
    0.7145    1.2375    0.0000 C   0  0  0  0  0  0  0  0  0  0  0  0
    1.4289    0.8250    0.0000 C   0  0  0  0  0  0  0  0  0  0  0  0
   -0.0000    3.3000    0.0000 C   0  0  0  0  0  0  0  0  0  0  0  0
   -0.7145    3.7125    0.0000 C   0  0  0  0  0  0  0  0  0  0  0  0
  1  2  1  0  0  0  0
  2  3  1  0  0  0  0
  2 25  1  0  0  0  0
  3  4  1  0  0  0  0
  4  5  1  0  0  0  0
  5  6  1  0  0  0  0
  5 24  1  0  0  0  0
  6  7  1  0  0  0  0
  7  8  1  0  0  0  0
  8  9  1  0  0  0  0
  9 10  1  0  0  0  0
  9 23  1  0  0  0  0
 10 11  2  0  0  0  0
 10 15  1  0  0  0  0
 11 12  1  0  0  0  0
 12 13  2  0  0  0  0
 13 14  1  0  0  0  0
 14 15  2  0  0  0  0
 15 16  1  0  0  0  0
 16 17  1  0  0  0  0
 17 18  2  0  0  0  0
 17 23  1  0  0  0  0
 18 19  1  0  0  0  0
 19 20  2  0  0  0  0
 20 21  1  0  0  0  0
 20 22  1  0  0  0  0
 22 23  2  0  0  0  0
 24 25  1  0  0  0  0
M  END
$$$$

 OpenBabel12191814062D

 26 25  0  0  0  0  0  0  0  0999 V2000
    5.3625    2.1434    0.0000 C   0  0  0  0  0  0  0  0  0  0  0  0
    4.9500    1.4289    0.0000 N   0  0  0  0  0  0  0  0  0  0  0  0
    4.1250    1.4289    0.0000 C   0  0  0  0  0  0  0  0  0  0  0  0
    3.7125    2.1434    0.0000 O   0  0  0  0  0  0  0  0  0  0  0  0
    3.7125    0.7145    0.0000 C   0  0  3  0  0  0  0  0  0  0  0  0
    2.8875    0.7145    0.0000 C   0  0  0  0  0  0  0  0  0  0  0  0
    2.4750   -0.0000    0.0000 S   0  0  0  0  0  0  0  0  0  0  0  0
    1.6500   -0.0000    0.0000 C   0  0  0  0  0  0  0  0  0  0  0  0
    1.2375   -0.7145    0.0000 C   0  0  0  0  0  0  0  0  0  0  0  0
    0.4125   -0.7145    0.0000 C   0  0  0  0  0  0  0  0  0  0  0  0
    0.0000    0.0000    0.0000 C   0  0  0  0  0  0  0  0  0  0  0  0
   -0.0000   -1.4289    0.0000 C   0  0  0  0  0  0  0  0  0  0  0  0
   -0.8250   -1.4289    0.0000 C   0  0  0  0  0  0  0  0  0  0  0  0
   -1.2375   -2.1434    0.0000 C   0  0  0  0  0  0  0  0  0  0  0  0
   -2.0625   -2.1434    0.0000 C   0  0  0  0  0  0  0  0  0  0  0  0
   -2.4750   -1.4289    0.0000 C   0  0  0  0  0  0  0  0  0  0  0  0
   -2.4750   -2.8579    0.0000 C   0  0  0  0  0  0  0  0  0  0  0  0
   -3.3000   -2.8579    0.0000 C   0  0  0  0  0  0  0  0  0  0  0  0
   -3.7125   -3.5724    0.0000 C   0  0  0  0  0  0  0  0  0  0  0  0
   -4.5375   -3.5724    0.0000 C   0  0  0  0  0  0  0  0  0  0  0  0
   -4.9500   -4.2868    0.0000 C   0  0  0  0  0  0  0  0  0  0  0  0
   -4.9500   -2.8579    0.0000 C   0  0  0  0  0  0  0  0  0  0  0  0
    4.1250   -0.0000    0.0000 N   0  0  0  0  0  0  0  0  0  0  0  0
    4.9500   -0.0000    0.0000 C   0  0  0  0  0  0  0  0  0  0  0  0
    5.3625    0.7145    0.0000 C   0  0  0  0  0  0  0  0  0  0  0  0
    5.3625   -0.7145    0.0000 O   0  0  0  0  0  0  0  0  0  0  0  0
  1  2  1  0  0  0  0
  2  3  1  0  0  0  0
  3  4  2  0  0  0  0
  3  5  1  0  0  0  0
  5  6  1  0  0  0  0
  5 23  1  0  0  0  0
  6  7  1  0  0  0  0
  7  8  1  0  0  0  0
  8  9  1  0  0  0  0
  9 10  2  0  0  0  0
 10 11  1  0  0  0  0
 10 12  1  0  0  0  0
 12 13  1  0  0  0  0
 13 14  1  0  0  0  0
 14 15  2  0  0  0  0
 15 16  1  0  0  0  0
 15 17  1  0  0  0  0
 17 18  1  0  0  0  0
 18 19  1  0  0  0  0
 19 20  2  0  0  0  0
 20 21  1  0  0  0  0
 20 22  1  0  0  0  0
 23 24  1  0  0  0  0
 24 25  1  0  0  0  0
 24 26  2  0  0  0  0
M  END
$$$$

 OpenBabel12191814062D

 30 33  0  0  0  0  0  0  0  0999 V2000
   -4.2868    4.9500    0.0000 C   0  0  0  0  0  0  0  0  0  0  0  0
   -3.5724    4.5375    0.0000 N   0  0  0  0  0  0  0  0  0  0  0  0
   -2.8579    4.9500    0.0000 C   0  0  0  0  0  0  0  0  0  0  0  0
   -2.8579    5.7750    0.0000 O   0  0  0  0  0  0  0  0  0  0  0  0
   -2.1434    4.5375    0.0000 C   0  0  0  0  0  0  0  0  0  0  0  0
   -1.4289    4.9500    0.0000 C   0  0  0  0  0  0  0  0  0  0  0  0
   -0.7145    4.5375    0.0000 N   0  0  0  0  0  0  0  0  0  0  0  0
   -0.0000    4.9500    0.0000 C   0  0  0  0  0  0  0  0  0  0  0  0
    0.7145    4.5375    0.0000 C   0  0  0  0  0  0  0  0  0  0  0  0
    0.7145    3.7125    0.0000 N   0  0  0  0  0  0  0  0  0  0  0  0
    1.4289    3.3000    0.0000 C   0  0  0  0  0  0  0  0  0  0  0  0
    1.4289    2.4750    0.0000 C   0  0  0  0  0  0  0  0  0  0  0  0
    2.1434    2.0625    0.0000 C   0  0  0  0  0  0  0  0  0  0  0  0
    2.1434    1.2375    0.0000 C   0  0  0  0  0  0  0  0  0  0  0  0
    2.8579    0.8250    0.0000 C   0  0  0  0  0  0  0  0  0  0  0  0
    3.5724    1.2375    0.0000 C   0  0  0  0  0  0  0  0  0  0  0  0
    4.2868    0.8250    0.0000 C   0  0  0  0  0  0  0  0  0  0  0  0
    4.2868   -0.0000    0.0000 C   0  0  0  0  0  0  0  0  0  0  0  0
    3.5724   -0.4125    0.0000 C   0  0  0  0  0  0  0  0  0  0  0  0
    2.8579    0.0000    0.0000 C   0  0  0  0  0  0  0  0  0  0  0  0
    2.1434   -0.4125    0.0000 S   0  0  0  0  0  0  0  0  0  0  0  0
    1.4289    0.0000    0.0000 C   0  0  0  0  0  0  0  0  0  0  0  0
    0.7145   -0.4125    0.0000 C   0  0  0  0  0  0  0  0  0  0  0  0
    0.0000    0.0000    0.0000 C   0  0  0  0  0  0  0  0  0  0  0  0
    0.0000    0.8250    0.0000 C   0  0  0  0  0  0  0  0  0  0  0  0
   -0.7145    1.2375    0.0000 Cl  0  0  0  0  0  0  0  0  0  0  0  0
    0.7145    1.2375    0.0000 C   0  0  0  0  0  0  0  0  0  0  0  0
    1.4289    0.8250    0.0000 C   0  0  0  0  0  0  0  0  0  0  0  0
   -0.0000    3.3000    0.0000 C   0  0  0  0  0  0  0  0  0  0  0  0
   -0.7145    3.7125    0.0000 C   0  0  0  0  0  0  0  0  0  0  0  0
  1  2  1  0  0  0  0
  2  3  1  0  0  0  0
  3  4  2  0  0  0  0
  3  5  1  0  0  0  0
  5  6  1  0  0  0  0
  6  7  1  0  0  0  0
  7  8  1  0  0  0  0
  7 30  1  0  0  0  0
  8  9  1  0  0  0  0
  9 10  1  0  0  0  0
 10 11  1  0  0  0  0
 10 29  1  0  0  0  0
 11 12  1  0  0  0  0
 12 13  1  0  0  0  0
 13 14  2  0  0  0  0
 14 15  1  0  0  0  0
 14 28  1  0  0  0  0
 15 16  2  0  0  0  0
 15 20  1  0  0  0  0
 16 17  1  0  0  0  0
 17 18  2  0  0  0  0
 18 19  1  0  0  0  0
 19 20  2  0  0  0  0
 20 21  1  0  0  0  0
 21 22  1  0  0  0  0
 22 23  2  0  0  0  0
 22 28  1  0  0  0  0
 23 24  1  0  0  0  0
 24 25  2  0  0  0  0
 25 26  1  0  0  0  0
 25 27  1  0  0  0  0
 27 28  2  0  0  0  0
 29 30  1  0  0  0  0
M  END
$$$$

 OpenBabel12191814062D

 20 22  0  0  0  0  0  0  0  0999 V2000
    2.1434   -2.8875    0.0000 C   0  0  0  0  0  0  0  0  0  0  0  0
    1.4289   -2.4750    0.0000 N   0  0  0  0  0  0  0  0  0  0  0  0
    1.4289   -1.6500    0.0000 C   0  0  3  0  0  0  0  0  0  0  0  0
    0.7145   -1.2375    0.0000 C   0  0  0  0  0  0  0  0  0  0  0  0
    0.7145   -0.4125    0.0000 C   0  0  0  0  0  0  0  0  0  0  0  0
    1.4289    0.0000    0.0000 C   0  0  3  0  0  0  0  0  0  0  0  0
    1.4289    0.8250    0.0000 C   0  0  0  0  0  0  0  0  0  0  0  0
    0.7145    1.2375    0.0000 C   0  0  0  0  0  0  0  0  0  0  0  0
    0.7145    2.0625    0.0000 C   0  0  0  0  0  0  0  0  0  0  0  0
    1.4289    2.4750    0.0000 C   0  0  0  0  0  0  0  0  0  0  0  0
    1.4289    3.3000    0.0000 Cl  0  0  0  0  0  0  0  0  0  0  0  0
    2.1434    2.0625    0.0000 C   0  0  0  0  0  0  0  0  0  0  0  0
    2.8579    2.4750    0.0000 Cl  0  0  0  0  0  0  0  0  0  0  0  0
    2.1434    1.2375    0.0000 C   0  0  0  0  0  0  0  0  0  0  0  0
    2.1434   -0.4125    0.0000 C   0  0  0  0  0  0  0  0  0  0  0  0
    2.8579    0.0000    0.0000 C   0  0  0  0  0  0  0  0  0  0  0  0
    3.5724   -0.4125    0.0000 C   0  0  0  0  0  0  0  0  0  0  0  0
    3.5724   -1.2375    0.0000 C   0  0  0  0  0  0  0  0  0  0  0  0
    2.8579   -1.6500    0.0000 C   0  0  0  0  0  0  0  0  0  0  0  0
    2.1434   -1.2375    0.0000 C   0  0  0  0  0  0  0  0  0  0  0  0
  1  2  1  0  0  0  0
  2  3  1  0  0  0  0
  3  4  1  0  0  0  0
  3 20  1  0  0  0  0
  4  5  1  0  0  0  0
  5  6  1  0  0  0  0
  6  7  1  0  0  0  0
  6 15  1  0  0  0  0
  7  8  2  0  0  0  0
  7 14  1  0  0  0  0
  8  9  1  0  0  0  0
  9 10  2  0  0  0  0
 10 11  1  0  0  0  0
 10 12  1  0  0  0  0
 12 13  1  0  0  0  0
 12 14  2  0  0  0  0
 15 16  2  0  0  0  0
 15 20  1  0  0  0  0
 16 17  1  0  0  0  0
 17 18  2  0  0  0  0
 18 19  1  0  0  0  0
 19 20  2  0  0  0  0
M  END
$$$$

 OpenBabel12191814062D

 34 37  0  0  0  0  0  0  0  0999 V2000
    0.0000    2.4750    0.0000 C   0  0  0  0  0  0  0  0  0  0  0  0
    0.7145    2.0625    0.0000 N   0  0  0  0  0  0  0  0  0  0  0  0
    0.7145    1.2375    0.0000 C   0  0  0  0  0  0  0  0  0  0  0  0
    1.4289    0.8250    0.0000 C   0  0  0  0  0  0  0  0  0  0  0  0
    1.4289   -0.0000    0.0000 C   0  0  0  0  0  0  0  0  0  0  0  0
    0.7145   -0.4125    0.0000 C   0  0  0  0  0  0  0  0  0  0  0  0
    0.0000   -0.0000    0.0000 C   0  0  0  0  0  0  0  0  0  0  0  0
    0.0000    0.8250    0.0000 C   0  0  0  0  0  0  0  0  0  0  0  0
    0.7145   -1.2375    0.0000 C   0  0  0  0  0  0  0  0  0  0  0  0
    1.3819   -1.7224    0.0000 N   0  0  0  0  0  0  0  0  0  0  0  0
    1.1270   -2.5070    0.0000 C   0  0  0  0  0  0  0  0  0  0  0  0
    0.3020   -2.5070    0.0000 N   0  0  0  0  0  0  0  0  0  0  0  0
    0.0470   -1.7224    0.0000 C   0  0  0  0  0  0  0  0  0  0  0  0
   -0.7376   -1.4675    0.0000 C   0  0  0  0  0  0  0  0  0  0  0  0
   -1.3507   -2.0195    0.0000 C   0  0  0  0  0  0  0  0  0  0  0  0
   -2.1353   -1.7646    0.0000 C   0  0  0  0  0  0  0  0  0  0  0  0
   -2.3068   -0.9576    0.0000 C   0  0  0  0  0  0  0  0  0  0  0  0
   -1.6937   -0.4056    0.0000 C   0  0  0  0  0  0  0  0  0  0  0  0
   -0.9091   -0.6605    0.0000 C   0  0  0  0  0  0  0  0  0  0  0  0
   -3.0915   -0.7027    0.0000 N   0  0  0  0  0  0  0  0  0  0  0  0
   -3.2630    0.1043    0.0000 C   0  0  0  0  0  0  0  0  0  0  0  0
   -3.7045   -1.2547    0.0000 C   0  0  0  0  0  0  0  0  0  0  0  0
    1.6119   -3.1745    0.0000 C   0  0  0  0  0  0  0  0  0  0  0  0
    2.4324   -3.0882    0.0000 C   0  0  0  0  0  0  0  0  0  0  0  0
    2.9173   -3.7557    0.0000 C   0  0  0  0  0  0  0  0  0  0  0  0
    2.5817   -4.5094    0.0000 C   0  0  0  0  0  0  0  0  0  0  0  0
    3.0667   -5.1768    0.0000 C   0  0  0  0  0  0  0  0  0  0  0  0
    2.7311   -5.9305    0.0000 C   0  0  0  0  0  0  0  0  0  0  0  0
    3.2160   -6.5979    0.0000 C   0  0  0  0  0  0  0  0  0  0  0  0
    4.0365   -6.5117    0.0000 O   0  0  0  0  0  0  0  0  0  0  0  0
    2.8805   -7.3516    0.0000 O   0  0  0  0  0  0  0  0  0  0  0  0
    3.3654   -8.0190    0.0000 C   0  0  0  0  0  0  0  0  0  0  0  0
    1.7613   -4.5956    0.0000 C   0  0  0  0  0  0  0  0  0  0  0  0
    1.2763   -3.9282    0.0000 C   0  0  0  0  0  0  0  0  0  0  0  0
  1  2  1  0  0  0  0
  2  3  1  0  0  0  0
  3  4  2  0  0  0  0
  3  8  1  0  0  0  0
  4  5  1  0  0  0  0
  5  6  2  0  0  0  0
  6  7  1  0  0  0  0
  6  9  1  0  0  0  0
  7  8  2  0  0  0  0
  9 10  1  0  0  0  0
  9 13  2  0  0  0  0
 10 11  1  0  0  0  0
 11 12  2  0  0  0  0
 11 23  1  0  0  0  0
 12 13  1  0  0  0  0
 13 14  1  0  0  0  0
 14 15  2  0  0  0  0
 14 19  1  0  0  0  0
 15 16  1  0  0  0  0
 16 17  2  0  0  0  0
 17 18  1  0  0  0  0
 17 20  1  0  0  0  0
 18 19  2  0  0  0  0
 20 21  1  0  0  0  0
 20 22  1  0  0  0  0
 23 24  2  0  0  0  0
 23 34  1  0  0  0  0
 24 25  1  0  0  0  0
 25 26  2  0  0  0  0
 26 27  1  0  0  0  0
 26 33  1  0  0  0  0
 27 28  2  0  0  0  0
 28 29  1  0  0  0  0
 29 30  2  0  0  0  0
 29 31  1  0  0  0  0
 31 32  1  0  0  0  0
 33 34  2  0  0  0  0
M  END
$$$$

 OpenBabel12191814062D

 35 38  0  0  0  0  0  0  0  0999 V2000
    0.0000    2.4750    0.0000 C   0  0  0  0  0  0  0  0  0  0  0  0
    0.7145    2.0625    0.0000 N   0  0  0  0  0  0  0  0  0  0  0  0
    0.7145    1.2375    0.0000 C   0  0  0  0  0  0  0  0  0  0  0  0
    1.4289    0.8250    0.0000 C   0  0  0  0  0  0  0  0  0  0  0  0
    1.4289   -0.0000    0.0000 C   0  0  0  0  0  0  0  0  0  0  0  0
    0.7145   -0.4125    0.0000 C   0  0  0  0  0  0  0  0  0  0  0  0
    0.0000   -0.0000    0.0000 C   0  0  0  0  0  0  0  0  0  0  0  0
    0.0000    0.8250    0.0000 C   0  0  0  0  0  0  0  0  0  0  0  0
    0.7145   -1.2375    0.0000 C   0  0  0  0  0  0  0  0  0  0  0  0
    1.3819   -1.7224    0.0000 N   0  0  0  0  0  0  0  0  0  0  0  0
    1.1270   -2.5070    0.0000 C   0  0  0  0  0  0  0  0  0  0  0  0
    0.3020   -2.5070    0.0000 N   0  0  0  0  0  0  0  0  0  0  0  0
    0.0470   -1.7224    0.0000 C   0  0  0  0  0  0  0  0  0  0  0  0
   -0.7376   -1.4675    0.0000 C   0  0  0  0  0  0  0  0  0  0  0  0
   -1.3507   -2.0195    0.0000 C   0  0  0  0  0  0  0  0  0  0  0  0
   -2.1353   -1.7646    0.0000 C   0  0  0  0  0  0  0  0  0  0  0  0
   -2.3068   -0.9576    0.0000 C   0  0  0  0  0  0  0  0  0  0  0  0
   -3.0915   -0.7027    0.0000 N   0  0  0  0  0  0  0  0  0  0  0  0
   -3.2630    0.1043    0.0000 C   0  0  0  0  0  0  0  0  0  0  0  0
   -4.0476    0.3592    0.0000 C   0  0  0  0  0  0  0  0  0  0  0  0
   -2.6499    0.6563    0.0000 C   0  0  0  0  0  0  0  0  0  0  0  0
   -1.6937   -0.4056    0.0000 C   0  0  0  0  0  0  0  0  0  0  0  0
   -0.9091   -0.6605    0.0000 C   0  0  0  0  0  0  0  0  0  0  0  0
    1.6119   -3.1745    0.0000 C   0  0  0  0  0  0  0  0  0  0  0  0
    2.4324   -3.0882    0.0000 C   0  0  0  0  0  0  0  0  0  0  0  0
    2.9173   -3.7557    0.0000 C   0  0  0  0  0  0  0  0  0  0  0  0
    2.5817   -4.5094    0.0000 C   0  0  0  0  0  0  0  0  0  0  0  0
    3.0667   -5.1768    0.0000 C   0  0  0  0  0  0  0  0  0  0  0  0
    2.7311   -5.9305    0.0000 C   0  0  0  0  0  0  0  0  0  0  0  0
    3.2160   -6.5979    0.0000 C   0  0  0  0  0  0  0  0  0  0  0  0
    4.0365   -6.5117    0.0000 O   0  0  0  0  0  0  0  0  0  0  0  0
    2.8805   -7.3516    0.0000 O   0  0  0  0  0  0  0  0  0  0  0  0
    3.3654   -8.0190    0.0000 C   0  0  0  0  0  0  0  0  0  0  0  0
    1.7613   -4.5956    0.0000 C   0  0  0  0  0  0  0  0  0  0  0  0
    1.2763   -3.9282    0.0000 C   0  0  0  0  0  0  0  0  0  0  0  0
  1  2  1  0  0  0  0
  2  3  1  0  0  0  0
  3  4  2  0  0  0  0
  3  8  1  0  0  0  0
  4  5  1  0  0  0  0
  5  6  2  0  0  0  0
  6  7  1  0  0  0  0
  6  9  1  0  0  0  0
  7  8  2  0  0  0  0
  9 10  1  0  0  0  0
  9 13  2  0  0  0  0
 10 11  1  0  0  0  0
 11 12  2  0  0  0  0
 11 24  1  0  0  0  0
 12 13  1  0  0  0  0
 13 14  1  0  0  0  0
 14 15  2  0  0  0  0
 14 23  1  0  0  0  0
 15 16  1  0  0  0  0
 16 17  2  0  0  0  0
 17 18  1  0  0  0  0
 17 22  1  0  0  0  0
 18 19  1  0  0  0  0
 19 20  1  0  0  0  0
 19 21  1  0  0  0  0
 22 23  2  0  0  0  0
 24 25  2  0  0  0  0
 24 35  1  0  0  0  0
 25 26  1  0  0  0  0
 26 27  2  0  0  0  0
 27 28  1  0  0  0  0
 27 34  1  0  0  0  0
 28 29  2  0  0  0  0
 29 30  1  0  0  0  0
 30 31  2  0  0  0  0
 30 32  1  0  0  0  0
 32 33  1  0  0  0  0
 34 35  2  0  0  0  0
M  END
$$$$

 OpenBabel12191814062D

 33 36  0  0  0  0  0  0  0  0999 V2000
    0.0000    2.4750    0.0000 C   0  0  0  0  0  0  0  0  0  0  0  0
    0.7145    2.0625    0.0000 N   0  0  0  0  0  0  0  0  0  0  0  0
    0.7145    1.2375    0.0000 C   0  0  0  0  0  0  0  0  0  0  0  0
    1.4289    0.8250    0.0000 C   0  0  0  0  0  0  0  0  0  0  0  0
    1.4289   -0.0000    0.0000 C   0  0  0  0  0  0  0  0  0  0  0  0
    0.7145   -0.4125    0.0000 C   0  0  0  0  0  0  0  0  0  0  0  0
    0.0000   -0.0000    0.0000 C   0  0  0  0  0  0  0  0  0  0  0  0
    0.0000    0.8250    0.0000 C   0  0  0  0  0  0  0  0  0  0  0  0
    0.7145   -1.2375    0.0000 C   0  0  0  0  0  0  0  0  0  0  0  0
    1.3819   -1.7224    0.0000 N   0  0  0  0  0  0  0  0  0  0  0  0
    1.1270   -2.5070    0.0000 C   0  0  0  0  0  0  0  0  0  0  0  0
    0.3020   -2.5070    0.0000 N   0  0  0  0  0  0  0  0  0  0  0  0
    0.0470   -1.7224    0.0000 C   0  0  0  0  0  0  0  0  0  0  0  0
   -0.7376   -1.4675    0.0000 C   0  0  0  0  0  0  0  0  0  0  0  0
   -1.3507   -2.0195    0.0000 C   0  0  0  0  0  0  0  0  0  0  0  0
   -2.1353   -1.7646    0.0000 C   0  0  0  0  0  0  0  0  0  0  0  0
   -2.3068   -0.9576    0.0000 C   0  0  0  0  0  0  0  0  0  0  0  0
   -3.0915   -0.7027    0.0000 N   0  0  0  0  0  0  0  0  0  0  0  0
   -3.2630    0.1043    0.0000 C   0  0  0  0  0  0  0  0  0  0  0  0
   -1.6937   -0.4056    0.0000 C   0  0  0  0  0  0  0  0  0  0  0  0
   -0.9091   -0.6605    0.0000 C   0  0  0  0  0  0  0  0  0  0  0  0
    1.6119   -3.1745    0.0000 C   0  0  0  0  0  0  0  0  0  0  0  0
    2.4324   -3.0882    0.0000 C   0  0  0  0  0  0  0  0  0  0  0  0
    2.9173   -3.7557    0.0000 C   0  0  0  0  0  0  0  0  0  0  0  0
    2.5817   -4.5094    0.0000 C   0  0  0  0  0  0  0  0  0  0  0  0
    3.0667   -5.1768    0.0000 C   0  0  0  0  0  0  0  0  0  0  0  0
    2.7311   -5.9305    0.0000 C   0  0  0  0  0  0  0  0  0  0  0  0
    3.2160   -6.5979    0.0000 C   0  0  0  0  0  0  0  0  0  0  0  0
    4.0365   -6.5117    0.0000 O   0  0  0  0  0  0  0  0  0  0  0  0
    2.8805   -7.3516    0.0000 O   0  0  0  0  0  0  0  0  0  0  0  0
    3.3654   -8.0190    0.0000 C   0  0  0  0  0  0  0  0  0  0  0  0
    1.7613   -4.5956    0.0000 C   0  0  0  0  0  0  0  0  0  0  0  0
    1.2763   -3.9282    0.0000 C   0  0  0  0  0  0  0  0  0  0  0  0
  1  2  1  0  0  0  0
  2  3  1  0  0  0  0
  3  4  2  0  0  0  0
  3  8  1  0  0  0  0
  4  5  1  0  0  0  0
  5  6  2  0  0  0  0
  6  7  1  0  0  0  0
  6  9  1  0  0  0  0
  7  8  2  0  0  0  0
  9 10  1  0  0  0  0
  9 13  2  0  0  0  0
 10 11  1  0  0  0  0
 11 12  2  0  0  0  0
 11 22  1  0  0  0  0
 12 13  1  0  0  0  0
 13 14  1  0  0  0  0
 14 15  2  0  0  0  0
 14 21  1  0  0  0  0
 15 16  1  0  0  0  0
 16 17  2  0  0  0  0
 17 18  1  0  0  0  0
 17 20  1  0  0  0  0
 18 19  1  0  0  0  0
 20 21  2  0  0  0  0
 22 23  2  0  0  0  0
 22 33  1  0  0  0  0
 23 24  1  0  0  0  0
 24 25  2  0  0  0  0
 25 26  1  0  0  0  0
 25 32  1  0  0  0  0
 26 27  2  0  0  0  0
 27 28  1  0  0  0  0
 28 29  2  0  0  0  0
 28 30  1  0  0  0  0
 30 31  1  0  0  0  0
 32 33  2  0  0  0  0
M  END
$$$$

 OpenBabel12191814062D

 19 20  0  0  0  0  0  0  0  0999 V2000
   -0.6804    0.7050    0.0000 C   0  0  0  0  0  0  0  0  0  0  0  0
    0.0340    0.2925    0.0000 N   0  0  0  0  0  0  0  0  0  0  0  0
    0.0340   -0.5325    0.0000 C   0  0  0  0  0  0  0  0  0  0  0  0
    0.7485   -0.9450    0.0000 C   0  0  3  0  0  0  0  0  0  0  0  0
    0.7485   -1.7700    0.0000 C   0  0  0  0  0  0  0  0  0  0  0  0
    1.4630   -2.1825    0.0000 C   0  0  0  0  0  0  0  0  0  0  0  0
    1.4630   -3.0075    0.0000 C   0  0  0  0  0  0  0  0  0  0  0  0
    0.7485   -3.4200    0.0000 C   0  0  0  0  0  0  0  0  0  0  0  0
    0.7485   -4.2450    0.0000 O   0  0  0  0  0  0  0  0  0  0  0  0
    0.0340   -4.6575    0.0000 C   0  0  0  0  0  0  0  0  0  0  0  0
    0.0340   -3.0075    0.0000 C   0  0  0  0  0  0  0  0  0  0  0  0
    0.0340   -2.1825    0.0000 C   0  0  0  0  0  0  0  0  0  0  0  0
    1.4630   -0.5325    0.0000 C   0  0  0  0  0  0  0  0  0  0  0  0
    1.7451   -1.3077    0.0000 O   0  0  0  0  0  0  0  0  0  0  0  0
    0.9327    0.0995    0.0000 C   0  0  0  0  0  0  0  0  0  0  0  0
    1.2148    0.8748    0.0000 C   0  0  0  0  0  0  0  0  0  0  0  0
    2.0273    1.0180    0.0000 C   0  0  0  0  0  0  0  0  0  0  0  0
    2.5576    0.3860    0.0000 C   0  0  0  0  0  0  0  0  0  0  0  0
    2.2754   -0.3892    0.0000 C   0  0  0  0  0  0  0  0  0  0  0  0
  1  2  1  0  0  0  0
  2  3  1  0  0  0  0
  3  4  1  0  0  0  0
  4  5  1  0  0  0  0
  4 13  1  0  0  0  0
  5  6  2  0  0  0  0
  5 12  1  0  0  0  0
  6  7  1  0  0  0  0
  7  8  2  0  0  0  0
  8  9  1  0  0  0  0
  8 11  1  0  0  0  0
  9 10  1  0  0  0  0
 11 12  2  0  0  0  0
 13 14  1  0  0  0  0
 13 15  1  0  0  0  0
 13 19  1  0  0  0  0
 15 16  1  0  0  0  0
 16 17  1  0  0  0  0
 17 18  1  0  0  0  0
 18 19  1  0  0  0  0
M  END
$$$$

 OpenBabel12191814062D

 14 14  0  0  0  0  0  0  0  0999 V2000
   -0.7145    3.7125    0.0000 C   0  0  0  0  0  0  0  0  0  0  0  0
    0.0000    3.3000    0.0000 N   0  0  0  0  0  0  0  0  0  0  0  0
    0.0000    2.4750    0.0000 C   0  0  0  0  0  0  0  0  0  0  0  0
    0.7145    2.0625    0.0000 C   0  0  3  0  0  0  0  0  0  0  0  0
    1.4289    2.4750    0.0000 O   0  0  0  0  0  0  0  0  0  0  0  0
    0.7145    1.2375    0.0000 C   0  0  0  0  0  0  0  0  0  0  0  0
    1.4289    0.8250    0.0000 C   0  0  0  0  0  0  0  0  0  0  0  0
    1.4289   -0.0000    0.0000 C   0  0  0  0  0  0  0  0  0  0  0  0
    0.7145   -0.4125    0.0000 C   0  0  0  0  0  0  0  0  0  0  0  0
    0.7145   -1.2375    0.0000 O   0  0  0  0  0  0  0  0  0  0  0  0
    0.0000    0.0000    0.0000 C   0  0  0  0  0  0  0  0  0  0  0  0
   -0.7145   -0.4125    0.0000 O   0  0  0  0  0  0  0  0  0  0  0  0
   -1.4289    0.0000    0.0000 C   0  0  0  0  0  0  0  0  0  0  0  0
    0.0000    0.8250    0.0000 C   0  0  0  0  0  0  0  0  0  0  0  0
  1  2  1  0  0  0  0
  2  3  1  0  0  0  0
  3  4  1  0  0  0  0
  4  5  1  0  0  0  0
  4  6  1  0  0  0  0
  6  7  2  0  0  0  0
  6 14  1  0  0  0  0
  7  8  1  0  0  0  0
  8  9  2  0  0  0  0
  9 10  1  0  0  0  0
  9 11  1  0  0  0  0
 11 12  1  0  0  0  0
 11 14  2  0  0  0  0
 12 13  1  0  0  0  0
M  END
$$$$

 OpenBabel12191814062D

 22 23  0  0  0  0  0  0  0  0999 V2000
    2.1434   -2.0625    0.0000 C   0  0  0  0  0  0  0  0  0  0  0  0
    2.8579   -1.6500    0.0000 N   0  0  0  0  0  0  0  0  0  0  0  0
    3.5724   -2.0625    0.0000 C   0  0  0  0  0  0  0  0  0  0  0  0
    4.2868   -1.6500    0.0000 C   0  0  0  0  0  0  0  0  0  0  0  0
    5.0013   -2.0625    0.0000 C   0  0  3  0  0  0  0  0  0  0  0  0
    5.7158   -1.6500    0.0000 O   0  0  0  0  0  0  0  0  0  0  0  0
    6.4302   -2.0625    0.0000 C   0  0  0  0  0  0  0  0  0  0  0  0
    7.1447   -1.6500    0.0000 C   0  0  0  0  0  0  0  0  0  0  0  0
    7.8592   -2.0625    0.0000 C   0  0  0  0  0  0  0  0  0  0  0  0
    7.8592   -2.8875    0.0000 C   0  0  0  0  0  0  0  0  0  0  0  0
    7.1447   -3.3000    0.0000 C   0  0  0  0  0  0  0  0  0  0  0  0
    6.4302   -2.8875    0.0000 C   0  0  0  0  0  0  0  0  0  0  0  0
    8.5737   -3.3000    0.0000 C   0  0  0  0  0  0  0  0  0  0  0  0
    9.2881   -3.7125    0.0000 F   0  0  0  0  0  0  0  0  0  0  0  0
    8.1612   -4.0145    0.0000 F   0  0  0  0  0  0  0  0  0  0  0  0
    8.9862   -2.5855    0.0000 F   0  0  0  0  0  0  0  0  0  0  0  0
    5.0013   -2.8875    0.0000 C   0  0  0  0  0  0  0  0  0  0  0  0
    5.7158   -3.3000    0.0000 C   0  0  0  0  0  0  0  0  0  0  0  0
    5.7158   -4.1250    0.0000 C   0  0  0  0  0  0  0  0  0  0  0  0
    5.0013   -4.5375    0.0000 C   0  0  0  0  0  0  0  0  0  0  0  0
    4.2868   -4.1250    0.0000 C   0  0  0  0  0  0  0  0  0  0  0  0
    4.2868   -3.3000    0.0000 C   0  0  0  0  0  0  0  0  0  0  0  0
  1  2  1  0  0  0  0
  2  3  1  0  0  0  0
  3  4  1  0  0  0  0
  4  5  1  0  0  0  0
  5  6  1  0  0  0  0
  5 17  1  0  0  0  0
  6  7  1  0  0  0  0
  7  8  2  0  0  0  0
  7 12  1  0  0  0  0
  8  9  1  0  0  0  0
  9 10  2  0  0  0  0
 10 11  1  0  0  0  0
 10 13  1  0  0  0  0
 11 12  2  0  0  0  0
 13 14  1  0  0  0  0
 13 15  1  0  0  0  0
 13 16  1  0  0  0  0
 17 18  2  0  0  0  0
 17 22  1  0  0  0  0
 18 19  1  0  0  0  0
 19 20  2  0  0  0  0
 20 21  1  0  0  0  0
 21 22  2  0  0  0  0
M  END
$$$$

 OpenBabel12191814062D

 21 24  0  0  0  0  0  0  0  0999 V2000
    1.4289    3.3000    0.0000 C   0  0  0  0  0  0  0  0  0  0  0  0
    1.4289    2.4750    0.0000 N   0  0  0  0  0  0  0  0  0  0  0  0
    2.1434    2.0625    0.0000 C   0  0  0  0  0  0  0  0  0  0  0  0
    2.1434    1.2375    0.0000 C   0  0  0  0  0  0  0  0  0  0  0  0
    2.8579    0.8250    0.0000 C   0  0  0  0  0  0  0  0  0  0  0  0
    2.8579    0.0000    0.0000 C   0  0  3  0  0  0  0  0  0  0  0  0
    2.9954   -0.5500    0.0000 C   0  0  0  0  0  0  0  0  0  0  0  0
    2.9954   -1.1000    0.0000 C   0  0  0  0  0  0  0  0  0  0  0  0
    2.8579   -1.6500    0.0000 C   0  0  3  0  0  0  0  0  0  0  0  0
    3.5724   -1.2375    0.0000 C   0  0  0  0  0  0  0  0  0  0  0  0
    4.2868   -1.6500    0.0000 C   0  0  0  0  0  0  0  0  0  0  0  0
    5.0013   -1.2375    0.0000 C   0  0  0  0  0  0  0  0  0  0  0  0
    5.0013   -0.4125    0.0000 C   0  0  0  0  0  0  0  0  0  0  0  0
    4.2868    0.0000    0.0000 C   0  0  0  0  0  0  0  0  0  0  0  0
    3.5724   -0.4125    0.0000 C   0  0  0  0  0  0  0  0  0  0  0  0
    2.1434   -1.2375    0.0000 C   0  0  0  0  0  0  0  0  0  0  0  0
    1.4289   -1.6500    0.0000 C   0  0  0  0  0  0  0  0  0  0  0  0
    0.7145   -1.2375    0.0000 C   0  0  0  0  0  0  0  0  0  0  0  0
    0.7145   -0.4125    0.0000 C   0  0  0  0  0  0  0  0  0  0  0  0
    1.4289    0.0000    0.0000 C   0  0  0  0  0  0  0  0  0  0  0  0
    2.1434   -0.4125    0.0000 C   0  0  0  0  0  0  0  0  0  0  0  0
  1  2  1  0  0  0  0
  2  3  1  0  0  0  0
  3  4  1  0  0  0  0
  4  5  1  0  0  0  0
  5  6  1  0  0  0  0
  6  7  1  0  0  0  0
  6 15  1  0  0  0  0
  6 21  1  0  0  0  0
  7  8  1  0  0  0  0
  8  9  1  0  0  0  0
  9 10  1  0  0  0  0
  9 16  1  0  0  0  0
 10 11  2  0  0  0  0
 10 15  1  0  0  0  0
 11 12  1  0  0  0  0
 12 13  2  0  0  0  0
 13 14  1  0  0  0  0
 14 15  2  0  0  0  0
 16 17  2  0  0  0  0
 16 21  1  0  0  0  0
 17 18  1  0  0  0  0
 18 19  2  0  0  0  0
 19 20  1  0  0  0  0
 20 21  2  0  0  0  0
M  END
$$$$

 OpenBabel12191814062D

 20 22  0  0  0  0  0  0  0  0999 V2000
   -0.5463   -2.6842    0.0000 C   0  0  0  0  0  0  0  0  0  0  0  0
    0.1681   -3.0967    0.0000 N   0  0  0  0  0  0  0  0  0  0  0  0
    0.8826   -2.6842    0.0000 C   0  0  0  0  0  0  0  0  0  0  0  0
    1.5971   -3.0967    0.0000 C   0  0  0  0  0  0  0  0  0  0  0  0
    2.3116   -2.6842    0.0000 C   0  0  0  0  0  0  0  0  0  0  0  0
    3.0260   -3.0967    0.0000 C   0  0  3  0  0  0  0  0  0  0  0  0
    3.7077   -2.6319    0.0000 C   0  0  0  0  0  0  0  0  0  0  0  0
    3.5241   -1.8276    0.0000 C   0  0  0  0  0  0  0  0  0  0  0  0
    4.1289   -1.2665    0.0000 C   0  0  0  0  0  0  0  0  0  0  0  0
    4.9172   -1.5096    0.0000 C   0  0  0  0  0  0  0  0  0  0  0  0
    5.1008   -2.3139    0.0000 C   0  0  0  0  0  0  0  0  0  0  0  0
    4.4960   -2.8751    0.0000 C   0  0  0  0  0  0  0  0  0  0  0  0
    4.7974   -3.6431    0.0000 C   0  0  0  0  0  0  0  0  0  0  0  0
    4.3849   -4.3575    0.0000 C   0  0  0  0  0  0  0  0  0  0  0  0
    3.5691   -4.4805    0.0000 C   0  0  0  0  0  0  0  0  0  0  0  0
    3.3856   -5.2848    0.0000 C   0  0  0  0  0  0  0  0  0  0  0  0
    2.5972   -5.5280    0.0000 C   0  0  0  0  0  0  0  0  0  0  0  0
    1.9925   -4.9668    0.0000 C   0  0  0  0  0  0  0  0  0  0  0  0
    2.1760   -4.1625    0.0000 C   0  0  0  0  0  0  0  0  0  0  0  0
    2.9644   -3.9193    0.0000 C   0  0  0  0  0  0  0  0  0  0  0  0
  1  2  1  0  0  0  0
  2  3  1  0  0  0  0
  3  4  1  0  0  0  0
  4  5  1  0  0  0  0
  5  6  1  0  0  0  0
  6  7  1  0  0  0  0
  6 20  1  0  0  0  0
  7  8  2  0  0  0  0
  7 12  1  0  0  0  0
  8  9  1  0  0  0  0
  9 10  2  0  0  0  0
 10 11  1  0  0  0  0
 11 12  2  0  0  0  0
 12 13  1  0  0  0  0
 13 14  2  0  0  0  0
 14 15  1  0  0  0  0
 15 16  2  0  0  0  0
 15 20  1  0  0  0  0
 16 17  1  0  0  0  0
 17 18  2  0  0  0  0
 18 19  1  0  0  0  0
 19 20  2  0  0  0  0
M  END
$$$$

 OpenBabel12191814062D

 28 30  0  0  0  0  0  0  0  0999 V2000
    3.5724   -2.8875    0.0000 C   0  0  0  0  0  0  0  0  0  0  0  0
    4.2868   -3.3000    0.0000 N   0  0  0  0  0  0  0  0  0  0  0  0
    5.0013   -2.8875    0.0000 C   0  0  0  0  0  0  0  0  0  0  0  0
    5.7158   -3.3000    0.0000 C   0  0  0  0  0  0  0  0  0  0  0  0
    6.4302   -2.8875    0.0000 O   0  0  0  0  0  0  0  0  0  0  0  0
    7.1447   -3.3000    0.0000 C   0  0  0  0  0  0  0  0  0  0  0  0
    7.8592   -2.8875    0.0000 C   0  0  0  0  0  0  0  0  0  0  0  0
    8.5737   -3.3000    0.0000 C   0  0  0  0  0  0  0  0  0  0  0  0
    8.5737   -4.1250    0.0000 C   0  0  0  0  0  0  0  0  0  0  0  0
    7.8592   -4.5375    0.0000 C   0  0  0  0  0  0  0  0  0  0  0  0
    7.1447   -4.1250    0.0000 C   0  0  0  0  0  0  0  0  0  0  0  0
    9.2881   -4.5375    0.0000 C   0  0  0  0  0  0  0  0  0  0  0  0
   10.0026   -4.1250    0.0000 C   0  0  0  0  0  0  0  0  0  0  0  0
   10.7171   -4.5375    0.0000 C   0  0  0  0  0  0  0  0  0  0  0  0
   11.4315   -4.1250    0.0000 C   0  0  0  0  0  0  0  0  0  0  0  0
   12.1460   -4.5375    0.0000 Cl  0  0  0  0  0  0  0  0  0  0  0  0
   10.0026   -3.3000    0.0000 C   0  0  0  0  0  0  0  0  0  0  0  0
    9.2881   -2.8875    0.0000 C   0  0  0  0  0  0  0  0  0  0  0  0
    9.2881   -2.0625    0.0000 C   0  0  0  0  0  0  0  0  0  0  0  0
   10.0026   -1.6500    0.0000 C   0  0  0  0  0  0  0  0  0  0  0  0
   10.7171   -2.0625    0.0000 C   0  0  0  0  0  0  0  0  0  0  0  0
   10.7171   -2.8875    0.0000 C   0  0  0  0  0  0  0  0  0  0  0  0
    9.2881   -5.3625    0.0000 C   0  0  0  0  0  0  0  0  0  0  0  0
   10.0026   -5.7750    0.0000 C   0  0  0  0  0  0  0  0  0  0  0  0
   10.0026   -6.6000    0.0000 C   0  0  0  0  0  0  0  0  0  0  0  0
    9.2881   -7.0125    0.0000 C   0  0  0  0  0  0  0  0  0  0  0  0
    8.5737   -6.6000    0.0000 C   0  0  0  0  0  0  0  0  0  0  0  0
    8.5737   -5.7750    0.0000 C   0  0  0  0  0  0  0  0  0  0  0  0
  1  2  1  0  0  0  0
  2  3  1  0  0  0  0
  3  4  1  0  0  0  0
  4  5  1  0  0  0  0
  5  6  1  0  0  0  0
  6  7  2  0  0  0  0
  6 11  1  0  0  0  0
  7  8  1  0  0  0  0
  8  9  2  0  0  0  0
  9 10  1  0  0  0  0
  9 12  1  0  0  0  0
 10 11  2  0  0  0  0
 12 13  2  0  0  0  0
 12 23  1  0  0  0  0
 13 14  1  0  0  0  0
 13 17  1  0  0  0  0
 14 15  1  0  0  0  0
 15 16  1  0  0  0  0
 17 18  2  0  0  0  0
 17 22  1  0  0  0  0
 18 19  1  0  0  0  0
 19 20  2  0  0  0  0
 20 21  1  0  0  0  0
 21 22  2  0  0  0  0
 23 24  2  0  0  0  0
 23 28  1  0  0  0  0
 24 25  1  0  0  0  0
 25 26  2  0  0  0  0
 26 27  1  0  0  0  0
 27 28  2  0  0  0  0
M  END
$$$$

 OpenBabel12191814062D

 30 32  0  0  0  0  0  0  0  0999 V2000
    0.2249   -2.5417    0.0000 C   0  0  0  0  0  0  0  0  0  0  0  0
   -0.3585   -1.9583    0.0000 O   0  0  0  0  0  0  0  0  0  0  0  0
   -0.1450   -1.1614    0.0000 N   0  0  0  0  0  0  0  0  0  0  0  0
   -0.7283   -0.5780    0.0000 C   0  0  0  0  0  0  0  0  0  0  0  0
   -0.5148    0.2189    0.0000 C   0  0  0  0  0  0  0  0  0  0  0  0
   -1.0982    0.8022    0.0000 O   0  0  0  0  0  0  0  0  0  0  0  0
    0.2821    0.4324    0.0000 N   0  0  0  0  0  0  0  0  0  0  0  0
    0.8655   -0.1510    0.0000 C   0  0  3  0  0  0  0  0  0  0  0  0
    1.6905   -0.1510    0.0000 C   0  0  3  0  0  0  0  0  0  0  0  0
    2.4049    0.2615    0.0000 S   0  0  0  0  0  0  0  0  0  0  0  0
    3.1194   -0.1510    0.0000 C   0  0  0  0  0  0  0  0  0  0  0  0
    3.1194   -0.9760    0.0000 C   0  0  0  0  0  0  0  0  0  0  0  0
    3.8339   -1.3885    0.0000 C   0  0  0  0  0  0  0  0  0  0  0  0
    3.8339   -2.2135    0.0000 O   0  0  0  0  0  0  0  0  0  0  0  0
    4.5483   -2.6260    0.0000 C   0  0  0  0  0  0  0  0  0  0  0  0
    4.5483   -3.4510    0.0000 C   0  0  0  0  0  0  0  0  0  0  0  0
    5.2628   -2.2135    0.0000 O   0  0  0  0  0  0  0  0  0  0  0  0
    2.4049   -1.3885    0.0000 C   0  0  0  0  0  0  0  0  0  0  0  0
    1.6905   -0.9760    0.0000 N   0  0  0  0  0  0  0  0  0  0  0  0
    0.8655   -0.9760    0.0000 C   0  0  0  0  0  0  0  0  0  0  0  0
    0.2821   -1.5593    0.0000 O   0  0  0  0  0  0  0  0  0  0  0  0
    2.4049   -2.2135    0.0000 C   0  0  0  0  0  0  0  0  0  0  0  0
    1.6905   -2.6260    0.0000 O   0  0  0  0  0  0  0  0  0  0  0  0
    3.1194   -2.6260    0.0000 O   0  0  0  0  0  0  0  0  0  0  0  0
   -1.5252   -0.7916    0.0000 C   0  0  0  0  0  0  0  0  0  0  0  0
   -1.8209   -1.5618    0.0000 C   0  0  0  0  0  0  0  0  0  0  0  0
   -2.6447   -1.5186    0.0000 S   0  0  0  0  0  0  0  0  0  0  0  0
   -2.8583   -0.7217    0.0000 C   0  0  0  0  0  0  0  0  0  0  0  0
   -3.6285   -0.4260    0.0000 N   0  0  0  0  0  0  0  0  0  0  0  0
   -2.1664   -0.2724    0.0000 N   0  0  0  0  0  0  0  0  0  0  0  0
  1  2  1  0  0  0  0
  2  3  1  0  0  0  0
  3  4  2  0  0  0  0
  4  5  1  0  0  0  0
  4 25  1  0  0  0  0
  5  6  2  0  0  0  0
  5  7  1  0  0  0  0
  7  8  1  0  0  0  0
  8  9  1  0  0  0  0
  8 20  1  0  0  0  0
  9 10  1  0  0  0  0
  9 19  1  0  0  0  0
 10 11  1  0  0  0  0
 11 12  1  0  0  0  0
 12 13  1  0  0  0  0
 12 18  2  0  0  0  0
 13 14  1  0  0  0  0
 14 15  1  0  0  0  0
 15 16  1  0  0  0  0
 15 17  2  0  0  0  0
 18 19  1  0  0  0  0
 18 22  1  0  0  0  0
 19 20  1  0  0  0  0
 20 21  2  0  0  0  0
 22 23  1  0  0  0  0
 22 24  2  0  0  0  0
 25 26  2  0  0  0  0
 25 30  1  0  0  0  0
 26 27  1  0  0  0  0
 27 28  1  0  0  0  0
 28 29  1  0  0  0  0
 28 30  2  0  0  0  0
M  END
$$$$

 OpenBabel12191814062D

 46 50  0  0  0  0  0  0  0  0999 V2000
   12.5599    0.2597    0.0000 C   0  0  0  0  0  0  0  0  0  0  0  0
   11.9087    0.7663    0.0000 O   0  0  0  0  0  0  0  0  0  0  0  0
   11.1444    0.4557    0.0000 N   0  0  0  0  0  0  0  0  0  0  0  0
   10.4933    0.9623    0.0000 C   0  0  0  0  0  0  0  0  0  0  0  0
    9.7290    0.6516    0.0000 C   0  0  0  0  0  0  0  0  0  0  0  0
    9.0778    1.1582    0.0000 C   0  0  3  0  0  0  0  0  0  0  0  0
    8.4267    1.6648    0.0000 C   0  0  0  0  0  0  0  0  0  0  0  0
    7.6624    1.3542    0.0000 C   0  0  3  0  0  0  0  0  0  0  0  0
    7.5492    0.5370    0.0000 C   0  0  0  0  0  0  0  0  0  0  0  0
    8.2004    0.0304    0.0000 C   0  0  3  0  0  0  0  0  0  0  0  0
    8.0873   -0.7868    0.0000 C   0  0  0  0  0  0  0  0  0  0  0  0
    7.3230   -1.0974    0.0000 C   0  0  0  0  0  0  0  0  0  0  0  0
    7.2098   -1.9146    0.0000 C   0  0  0  0  0  0  0  0  0  0  0  0
    7.8610   -2.4212    0.0000 C   0  0  0  0  0  0  0  0  0  0  0  0
    6.4455   -2.2252    0.0000 C   0  0  0  0  0  0  0  0  0  0  0  0
    5.7944   -1.7187    0.0000 C   0  0  3  0  0  0  0  0  0  0  0  0
    5.0301   -2.0293    0.0000 C   0  0  0  0  0  0  0  0  0  0  0  0
    5.9075   -0.9015    0.0000 C   0  0  0  0  0  0  0  0  0  0  0  0
    5.2564   -0.3949    0.0000 C   0  0  0  0  0  0  0  0  0  0  0  0
    5.3695    0.4223    0.0000 C   0  0  0  0  0  0  0  0  0  0  0  0
    4.7184    0.9289    0.0000 C   0  0  0  0  0  0  0  0  0  0  0  0
    3.8955    0.8697    0.0000 C   0  0  0  0  0  0  0  0  0  0  0  0
    3.5849    1.6340    0.0000 O   0  0  0  0  0  0  0  0  0  0  0  0
    4.2158    2.1656    0.0000 C   0  0  3  0  0  0  0  0  0  0  0  0
    4.2429    2.9901    0.0000 C   0  0  3  0  0  0  0  0  0  0  0  0
    3.5423    3.4259    0.0000 O   0  0  0  0  0  0  0  0  0  0  0  0
    4.9705    3.3789    0.0000 C   0  0  0  0  0  0  0  0  0  0  0  0
    4.9976    4.2035    0.0000 C   0  0  0  0  0  0  0  0  0  0  0  0
    5.6710    2.9432    0.0000 C   0  0  0  0  0  0  0  0  0  0  0  0
    5.5958    2.0567    0.0000 C   0  0  3  0  0  0  0  0  0  0  0  0
    6.2469    1.5502    0.0000 C   0  0  0  0  0  0  0  0  0  0  0  0
    6.1338    0.7330    0.0000 O   0  0  0  0  0  0  0  0  0  0  0  0
    7.0112    1.8608    0.0000 O   0  0  0  0  0  0  0  0  0  0  0  0
    4.8315    1.7461    0.0000 C   0  0  3  0  0  0  0  0  0  0  0  0
    4.9188    2.5665    0.0000 O   0  0  0  0  0  0  0  0  0  0  0  0
    8.9647    0.3410    0.0000 O   0  0  0  0  0  0  0  0  0  0  0  0
    9.1910    1.9754    0.0000 O   0  0  0  0  0  0  0  0  0  0  0  0
    9.9553    2.2861    0.0000 C   0  0  3  0  0  0  0  0  0  0  0  0
   10.6064    1.7795    0.0000 C   0  0  3  0  0  0  0  0  0  0  0  0
   11.3707    2.0901    0.0000 C   0  0  0  0  0  0  0  0  0  0  0  0
   10.0684    3.1033    0.0000 C   0  0  0  0  0  0  0  0  0  0  0  0
    9.4172    3.6098    0.0000 C   0  0  0  0  0  0  0  0  0  0  0  0
   10.8327    3.4139    0.0000 C   0  0  0  0  0  0  0  0  0  0  0  0
   10.9458    4.2311    0.0000 C   0  0  0  0  0  0  0  0  0  0  0  0
   10.2947    4.7377    0.0000 C   0  0  0  0  0  0  0  0  0  0  0  0
   11.7101    4.5417    0.0000 C   0  0  0  0  0  0  0  0  0  0  0  0
  1  2  1  0  0  0  0
  2  3  1  0  0  0  0
  3  4  2  0  0  0  0
  4  5  1  0  0  0  0
  4 39  1  0  0  0  0
  5  6  1  0  0  0  0
  6  7  1  0  0  0  0
  6 36  1  0  0  0  0
  6 37  1  0  0  0  0
  7  8  1  0  0  0  0
  8  9  1  0  0  0  0
  8 33  1  0  0  0  0
  9 10  1  0  0  0  0
 10 11  1  0  0  0  0
 10 36  1  0  0  0  0
 12 11  1  0  0  0  0
 12 13  2  3  0  0  0
 13 14  1  0  0  0  0
 13 15  1  0  0  0  0
 15 16  1  0  0  0  0
 16 17  1  0  0  0  0
 18 16  1  0  0  0  0
 18 19  2  3  0  0  0
 20 19  1  0  0  0  0
 20 21  2  3  0  0  0
 21 22  1  0  0  0  0
 21 34  1  0  0  0  0
 22 23  1  0  0  0  0
 23 24  1  0  0  0  0
 24 25  1  0  0  0  0
 24 34  1  0  0  0  0
 25 26  1  0  0  0  0
 25 27  1  0  0  0  0
 27 28  1  0  0  0  0
 27 29  2  0  0  0  0
 29 30  1  0  0  0  0
 30 31  1  0  0  0  0
 30 34  1  0  0  0  0
 31 32  2  0  0  0  0
 31 33  1  0  0  0  0
 34 35  1  0  0  0  0
 37 38  1  0  0  0  0
 38 39  1  0  0  0  0
 38 41  1  0  0  0  0
 39 40  1  0  0  0  0
 41 42  1  0  0  0  0
 41 43  2  0  0  0  0
 43 44  1  0  0  0  0
 44 45  1  0  0  0  0
 44 46  1  0  0  0  0
M  END
$$$$

 OpenBabel12191814062D

 35 38  0  0  0  0  0  0  0  0999 V2000
   -0.7145    4.5375    0.0000 C   0  0  0  0  0  0  0  0  0  0  0  0
   -0.7145    3.7125    0.0000 O   0  0  0  0  0  0  0  0  0  0  0  0
    0.0000    3.3000    0.0000 C   0  0  0  0  0  0  0  0  0  0  0  0
    0.7145    3.7125    0.0000 O   0  0  0  0  0  0  0  0  0  0  0  0
    0.0000    2.4750    0.0000 C   0  0  0  0  0  0  0  0  0  0  0  0
    0.7145    2.0625    0.0000 C   0  0  0  0  0  0  0  0  0  0  0  0
    0.7145    1.2375    0.0000 C   0  0  0  0  0  0  0  0  0  0  0  0
    1.4289    0.8250    0.0000 C   0  0  0  0  0  0  0  0  0  0  0  0
    1.4289   -0.0000    0.0000 C   0  0  0  0  0  0  0  0  0  0  0  0
    0.7145   -0.4125    0.0000 C   0  0  0  0  0  0  0  0  0  0  0  0
    0.0000   -0.0000    0.0000 C   0  0  0  0  0  0  0  0  0  0  0  0
    0.0000    0.8250    0.0000 C   0  0  0  0  0  0  0  0  0  0  0  0
    0.7145   -1.2375    0.0000 C   0  0  0  0  0  0  0  0  0  0  0  0
    1.3819   -1.7224    0.0000 N   0  0  0  0  0  0  0  0  0  0  0  0
    1.1270   -2.5070    0.0000 C   0  0  0  0  0  0  0  0  0  0  0  0
    0.3020   -2.5070    0.0000 C   0  0  0  0  0  0  0  0  0  0  0  0
    0.0470   -1.7224    0.0000 N   0  0  0  0  0  0  0  0  0  0  0  0
   -0.1830   -3.1745    0.0000 C   0  0  0  0  0  0  0  0  0  0  0  0
    0.1526   -3.9282    0.0000 C   0  0  0  0  0  0  0  0  0  0  0  0
   -0.3323   -4.5956    0.0000 C   0  0  0  0  0  0  0  0  0  0  0  0
   -1.1528   -4.5094    0.0000 C   0  0  0  0  0  0  0  0  0  0  0  0
   -1.4884   -3.7557    0.0000 C   0  0  0  0  0  0  0  0  0  0  0  0
   -1.0034   -3.0882    0.0000 C   0  0  0  0  0  0  0  0  0  0  0  0
   -1.6377   -5.1768    0.0000 N   0  0  0  0  0  0  0  0  0  0  0  0
   -1.3022   -5.9305    0.0000 C   0  0  0  0  0  0  0  0  0  0  0  0
   -2.4582   -5.0906    0.0000 C   0  0  0  0  0  0  0  0  0  0  0  0
    1.6119   -3.1745    0.0000 C   0  0  0  0  0  0  0  0  0  0  0  0
    2.4324   -3.0882    0.0000 C   0  0  0  0  0  0  0  0  0  0  0  0
    2.9173   -3.7557    0.0000 C   0  0  0  0  0  0  0  0  0  0  0  0
    2.5817   -4.5094    0.0000 C   0  0  0  0  0  0  0  0  0  0  0  0
    1.7613   -4.5956    0.0000 C   0  0  0  0  0  0  0  0  0  0  0  0
    1.2763   -3.9282    0.0000 C   0  0  0  0  0  0  0  0  0  0  0  0
    3.0667   -5.1768    0.0000 N   0  0  0  0  0  0  0  0  0  0  0  0
    2.7311   -5.9305    0.0000 C   0  0  0  0  0  0  0  0  0  0  0  0
    3.8871   -5.0906    0.0000 C   0  0  0  0  0  0  0  0  0  0  0  0
  1  2  1  0  0  0  0
  2  3  1  0  0  0  0
  3  4  2  0  0  0  0
  3  5  1  0  0  0  0
  5  6  2  0  0  0  0
  6  7  1  0  0  0  0
  7  8  2  0  0  0  0
  7 12  1  0  0  0  0
  8  9  1  0  0  0  0
  9 10  2  0  0  0  0
 10 11  1  0  0  0  0
 10 13  1  0  0  0  0
 11 12  2  0  0  0  0
 13 14  1  0  0  0  0
 13 17  2  0  0  0  0
 14 15  1  0  0  0  0
 15 16  2  0  0  0  0
 15 27  1  0  0  0  0
 16 17  1  0  0  0  0
 16 18  1  0  0  0  0
 18 19  2  0  0  0  0
 18 23  1  0  0  0  0
 19 20  1  0  0  0  0
 20 21  2  0  0  0  0
 21 22  1  0  0  0  0
 21 24  1  0  0  0  0
 22 23  2  0  0  0  0
 24 25  1  0  0  0  0
 24 26  1  0  0  0  0
 27 28  2  0  0  0  0
 27 32  1  0  0  0  0
 28 29  1  0  0  0  0
 29 30  2  0  0  0  0
 30 31  1  0  0  0  0
 30 33  1  0  0  0  0
 31 32  2  0  0  0  0
 33 34  1  0  0  0  0
 33 35  1  0  0  0  0
M  END
$$$$

 OpenBabel12191814062D

 43 46  0  0  0  0  0  0  0  0999 V2000
    6.2233   12.1440    0.0000 C   0  0  0  0  0  0  0  0  0  0  0  0
    5.7384   11.4766    0.0000 O   0  0  0  0  0  0  0  0  0  0  0  0
    6.0739   10.7229    0.0000 C   0  0  0  0  0  0  0  0  0  0  0  0
    6.8944   10.6367    0.0000 O   0  0  0  0  0  0  0  0  0  0  0  0
    5.5890   10.0555    0.0000 C   0  0  0  0  0  0  0  0  0  0  0  0
    5.9245    9.3018    0.0000 C   0  0  0  0  0  0  0  0  0  0  0  0
    5.4396    8.6344    0.0000 C   0  0  0  0  0  0  0  0  0  0  0  0
    5.7752    7.8807    0.0000 C   0  0  0  0  0  0  0  0  0  0  0  0
    5.2903    7.2132    0.0000 C   0  0  0  0  0  0  0  0  0  0  0  0
    4.4698    7.2995    0.0000 C   0  0  0  0  0  0  0  0  0  0  0  0
    4.1342    8.0532    0.0000 C   0  0  0  0  0  0  0  0  0  0  0  0
    4.6191    8.7206    0.0000 C   0  0  0  0  0  0  0  0  0  0  0  0
    3.9849    6.6320    0.0000 C   0  0  0  0  0  0  0  0  0  0  0  0
    4.2398    5.8474    0.0000 N   0  0  0  0  0  0  0  0  0  0  0  0
    3.5724    5.3625    0.0000 C   0  0  0  0  0  0  0  0  0  0  0  0
    2.9049    5.8474    0.0000 C   0  0  0  0  0  0  0  0  0  0  0  0
    3.1599    6.6320    0.0000 N   0  0  0  0  0  0  0  0  0  0  0  0
    2.1203    5.5925    0.0000 C   0  0  0  0  0  0  0  0  0  0  0  0
    1.9488    4.7855    0.0000 C   0  0  0  0  0  0  0  0  0  0  0  0
    1.1641    4.5306    0.0000 C   0  0  0  0  0  0  0  0  0  0  0  0
    0.5511    5.0826    0.0000 C   0  0  0  0  0  0  0  0  0  0  0  0
    0.7226    5.8896    0.0000 C   0  0  0  0  0  0  0  0  0  0  0  0
    1.5072    6.1445    0.0000 C   0  0  0  0  0  0  0  0  0  0  0  0
   -0.2336    4.8277    0.0000 N   0  0  0  0  0  0  0  0  0  0  0  0
   -0.4051    4.0207    0.0000 C   0  0  0  0  0  0  0  0  0  0  0  0
   -1.1897    3.7658    0.0000 C   0  0  0  0  0  0  0  0  0  0  0  0
   -1.3612    2.9588    0.0000 C   0  0  0  0  0  0  0  0  0  0  0  0
   -0.8467    5.3797    0.0000 C   0  0  0  0  0  0  0  0  0  0  0  0
   -1.6313    5.1248    0.0000 C   0  0  0  0  0  0  0  0  0  0  0  0
   -2.2444    5.6768    0.0000 C   0  0  0  0  0  0  0  0  0  0  0  0
    3.5724    4.5375    0.0000 C   0  0  0  0  0  0  0  0  0  0  0  0
    4.2868    4.1250    0.0000 C   0  0  0  0  0  0  0  0  0  0  0  0
    4.2868    3.3000    0.0000 C   0  0  0  0  0  0  0  0  0  0  0  0
    3.5724    2.8875    0.0000 C   0  0  0  0  0  0  0  0  0  0  0  0
    2.8579    3.3000    0.0000 C   0  0  0  0  0  0  0  0  0  0  0  0
    2.8579    4.1250    0.0000 C   0  0  0  0  0  0  0  0  0  0  0  0
    3.5724    2.0625    0.0000 N   0  0  0  0  0  0  0  0  0  0  0  0
    2.8579    1.6500    0.0000 C   0  0  0  0  0  0  0  0  0  0  0  0
    2.1434    2.0625    0.0000 C   0  0  0  0  0  0  0  0  0  0  0  0
    1.4289    1.6500    0.0000 C   0  0  0  0  0  0  0  0  0  0  0  0
    4.2868    1.6500    0.0000 C   0  0  0  0  0  0  0  0  0  0  0  0
    5.0013    2.0625    0.0000 C   0  0  0  0  0  0  0  0  0  0  0  0
    5.7158    1.6500    0.0000 C   0  0  0  0  0  0  0  0  0  0  0  0
  1  2  1  0  0  0  0
  2  3  1  0  0  0  0
  3  4  2  0  0  0  0
  3  5  1  0  0  0  0
  5  6  2  0  0  0  0
  6  7  1  0  0  0  0
  7  8  2  0  0  0  0
  7 12  1  0  0  0  0
  8  9  1  0  0  0  0
  9 10  2  0  0  0  0
 10 11  1  0  0  0  0
 10 13  1  0  0  0  0
 11 12  2  0  0  0  0
 13 14  1  0  0  0  0
 13 17  2  0  0  0  0
 14 15  1  0  0  0  0
 15 16  2  0  0  0  0
 15 31  1  0  0  0  0
 16 17  1  0  0  0  0
 16 18  1  0  0  0  0
 18 19  2  0  0  0  0
 18 23  1  0  0  0  0
 19 20  1  0  0  0  0
 20 21  2  0  0  0  0
 21 22  1  0  0  0  0
 21 24  1  0  0  0  0
 22 23  2  0  0  0  0
 24 25  1  0  0  0  0
 24 28  1  0  0  0  0
 25 26  1  0  0  0  0
 26 27  2  0  0  0  0
 28 29  1  0  0  0  0
 29 30  2  0  0  0  0
 31 32  2  0  0  0  0
 31 36  1  0  0  0  0
 32 33  1  0  0  0  0
 33 34  2  0  0  0  0
 34 35  1  0  0  0  0
 34 37  1  0  0  0  0
 35 36  2  0  0  0  0
 37 38  1  0  0  0  0
 37 41  1  0  0  0  0
 38 39  1  0  0  0  0
 39 40  2  0  0  0  0
 41 42  1  0  0  0  0
 42 43  2  0  0  0  0
M  END
$$$$

 OpenBabel12191814062D

 39 44  0  0  0  0  0  0  0  0999 V2000
   -0.7145    4.5375    0.0000 C   0  0  0  0  0  0  0  0  0  0  0  0
   -0.7145    3.7125    0.0000 O   0  0  0  0  0  0  0  0  0  0  0  0
    0.0000    3.3000    0.0000 C   0  0  0  0  0  0  0  0  0  0  0  0
    0.7145    3.7125    0.0000 O   0  0  0  0  0  0  0  0  0  0  0  0
    0.0000    2.4750    0.0000 C   0  0  0  0  0  0  0  0  0  0  0  0
    0.7145    2.0625    0.0000 C   0  0  0  0  0  0  0  0  0  0  0  0
    0.7145    1.2375    0.0000 C   0  0  0  0  0  0  0  0  0  0  0  0
    1.4289    0.8250    0.0000 C   0  0  0  0  0  0  0  0  0  0  0  0
    1.4289   -0.0000    0.0000 C   0  0  0  0  0  0  0  0  0  0  0  0
    0.7145   -0.4125    0.0000 C   0  0  0  0  0  0  0  0  0  0  0  0
    0.0000   -0.0000    0.0000 C   0  0  0  0  0  0  0  0  0  0  0  0
    0.0000    0.8250    0.0000 C   0  0  0  0  0  0  0  0  0  0  0  0
    0.7145   -1.2375    0.0000 C   0  0  0  0  0  0  0  0  0  0  0  0
    1.3819   -1.7224    0.0000 N   0  0  0  0  0  0  0  0  0  0  0  0
    1.1270   -2.5070    0.0000 C   0  0  0  0  0  0  0  0  0  0  0  0
    0.3020   -2.5070    0.0000 C   0  0  0  0  0  0  0  0  0  0  0  0
    0.0470   -1.7224    0.0000 N   0  0  0  0  0  0  0  0  0  0  0  0
   -0.1830   -3.1745    0.0000 C   0  0  0  0  0  0  0  0  0  0  0  0
    0.1526   -3.9282    0.0000 C   0  0  0  0  0  0  0  0  0  0  0  0
   -0.3323   -4.5956    0.0000 C   0  0  0  0  0  0  0  0  0  0  0  0
   -1.1528   -4.5094    0.0000 C   0  0  0  0  0  0  0  0  0  0  0  0
   -1.4884   -3.7557    0.0000 C   0  0  0  0  0  0  0  0  0  0  0  0
   -1.0034   -3.0882    0.0000 C   0  0  0  0  0  0  0  0  0  0  0  0
   -1.6377   -5.1768    0.0000 N   0  0  0  0  0  0  0  0  0  0  0  0
   -1.3828   -5.9614    0.0000 C   0  0  0  0  0  0  0  0  0  0  0  0
   -2.0502   -6.4463    0.0000 C   0  0  0  0  0  0  0  0  0  0  0  0
   -2.7177   -5.9614    0.0000 C   0  0  0  0  0  0  0  0  0  0  0  0
   -2.4627   -5.1768    0.0000 C   0  0  0  0  0  0  0  0  0  0  0  0
    1.6119   -3.1745    0.0000 C   0  0  0  0  0  0  0  0  0  0  0  0
    2.4324   -3.0882    0.0000 C   0  0  0  0  0  0  0  0  0  0  0  0
    2.9173   -3.7557    0.0000 C   0  0  0  0  0  0  0  0  0  0  0  0
    2.5817   -4.5094    0.0000 C   0  0  0  0  0  0  0  0  0  0  0  0
    1.7613   -4.5956    0.0000 C   0  0  0  0  0  0  0  0  0  0  0  0
    1.2763   -3.9282    0.0000 C   0  0  0  0  0  0  0  0  0  0  0  0
    3.0667   -5.1768    0.0000 N   0  0  0  0  0  0  0  0  0  0  0  0
    3.8917   -5.1768    0.0000 C   0  0  0  0  0  0  0  0  0  0  0  0
    4.1466   -5.9614    0.0000 C   0  0  0  0  0  0  0  0  0  0  0  0
    3.4792   -6.4463    0.0000 C   0  0  0  0  0  0  0  0  0  0  0  0
    2.8117   -5.9614    0.0000 C   0  0  0  0  0  0  0  0  0  0  0  0
  1  2  1  0  0  0  0
  2  3  1  0  0  0  0
  3  4  2  0  0  0  0
  3  5  1  0  0  0  0
  5  6  2  0  0  0  0
  6  7  1  0  0  0  0
  7  8  2  0  0  0  0
  7 12  1  0  0  0  0
  8  9  1  0  0  0  0
  9 10  2  0  0  0  0
 10 11  1  0  0  0  0
 10 13  1  0  0  0  0
 11 12  2  0  0  0  0
 13 14  1  0  0  0  0
 13 17  2  0  0  0  0
 14 15  1  0  0  0  0
 15 16  2  0  0  0  0
 15 29  1  0  0  0  0
 16 17  1  0  0  0  0
 16 18  1  0  0  0  0
 18 19  2  0  0  0  0
 18 23  1  0  0  0  0
 19 20  1  0  0  0  0
 20 21  2  0  0  0  0
 21 22  1  0  0  0  0
 21 24  1  0  0  0  0
 22 23  2  0  0  0  0
 24 25  1  0  0  0  0
 24 28  1  0  0  0  0
 25 26  1  0  0  0  0
 26 27  1  0  0  0  0
 27 28  1  0  0  0  0
 29 30  2  0  0  0  0
 29 34  1  0  0  0  0
 30 31  1  0  0  0  0
 31 32  2  0  0  0  0
 32 33  1  0  0  0  0
 32 35  1  0  0  0  0
 33 34  2  0  0  0  0
 35 36  1  0  0  0  0
 35 39  1  0  0  0  0
 36 37  1  0  0  0  0
 37 38  1  0  0  0  0
 38 39  1  0  0  0  0
M  END
$$$$

 OpenBabel12191814062D

 33 36  0  0  0  0  0  0  0  0999 V2000
   -0.7145    4.5375    0.0000 C   0  0  0  0  0  0  0  0  0  0  0  0
   -0.7145    3.7125    0.0000 O   0  0  0  0  0  0  0  0  0  0  0  0
    0.0000    3.3000    0.0000 C   0  0  0  0  0  0  0  0  0  0  0  0
    0.7145    3.7125    0.0000 O   0  0  0  0  0  0  0  0  0  0  0  0
    0.0000    2.4750    0.0000 C   0  0  0  0  0  0  0  0  0  0  0  0
    0.7145    2.0625    0.0000 C   0  0  0  0  0  0  0  0  0  0  0  0
    0.7145    1.2375    0.0000 C   0  0  0  0  0  0  0  0  0  0  0  0
    1.4289    0.8250    0.0000 C   0  0  0  0  0  0  0  0  0  0  0  0
    1.4289   -0.0000    0.0000 C   0  0  0  0  0  0  0  0  0  0  0  0
    0.7145   -0.4125    0.0000 C   0  0  0  0  0  0  0  0  0  0  0  0
    0.0000   -0.0000    0.0000 C   0  0  0  0  0  0  0  0  0  0  0  0
    0.0000    0.8250    0.0000 C   0  0  0  0  0  0  0  0  0  0  0  0
    0.7145   -1.2375    0.0000 C   0  0  0  0  0  0  0  0  0  0  0  0
    1.3819   -1.7224    0.0000 N   0  0  0  0  0  0  0  0  0  0  0  0
    1.1270   -2.5070    0.0000 C   0  0  0  0  0  0  0  0  0  0  0  0
    0.3020   -2.5070    0.0000 C   0  0  0  0  0  0  0  0  0  0  0  0
    0.0470   -1.7224    0.0000 N   0  0  0  0  0  0  0  0  0  0  0  0
   -0.1830   -3.1745    0.0000 C   0  0  0  0  0  0  0  0  0  0  0  0
    0.1526   -3.9282    0.0000 C   0  0  0  0  0  0  0  0  0  0  0  0
   -0.3323   -4.5956    0.0000 C   0  0  0  0  0  0  0  0  0  0  0  0
   -1.1528   -4.5094    0.0000 C   0  0  0  0  0  0  0  0  0  0  0  0
   -1.6377   -5.1768    0.0000 N   0  0  0  0  0  0  0  0  0  0  0  0
   -1.4884   -3.7557    0.0000 C   0  0  0  0  0  0  0  0  0  0  0  0
   -1.0034   -3.0882    0.0000 C   0  0  0  0  0  0  0  0  0  0  0  0
    1.6119   -3.1745    0.0000 C   0  0  0  0  0  0  0  0  0  0  0  0
    2.4324   -3.0882    0.0000 C   0  0  0  0  0  0  0  0  0  0  0  0
    2.9173   -3.7557    0.0000 C   0  0  0  0  0  0  0  0  0  0  0  0
    2.5817   -4.5094    0.0000 C   0  0  0  0  0  0  0  0  0  0  0  0
    1.7613   -4.5956    0.0000 C   0  0  0  0  0  0  0  0  0  0  0  0
    1.2763   -3.9282    0.0000 C   0  0  0  0  0  0  0  0  0  0  0  0
    3.0667   -5.1768    0.0000 N   0  0  0  0  0  0  0  0  0  0  0  0
    3.8871   -5.0906    0.0000 C   0  0  0  0  0  0  0  0  0  0  0  0
    2.7311   -5.9305    0.0000 C   0  0  0  0  0  0  0  0  0  0  0  0
  1  2  1  0  0  0  0
  2  3  1  0  0  0  0
  3  4  2  0  0  0  0
  3  5  1  0  0  0  0
  5  6  2  0  0  0  0
  6  7  1  0  0  0  0
  7  8  2  0  0  0  0
  7 12  1  0  0  0  0
  8  9  1  0  0  0  0
  9 10  2  0  0  0  0
 10 11  1  0  0  0  0
 10 13  1  0  0  0  0
 11 12  2  0  0  0  0
 13 14  1  0  0  0  0
 13 17  2  0  0  0  0
 14 15  1  0  0  0  0
 15 16  2  0  0  0  0
 15 25  1  0  0  0  0
 16 17  1  0  0  0  0
 16 18  1  0  0  0  0
 18 19  2  0  0  0  0
 18 24  1  0  0  0  0
 19 20  1  0  0  0  0
 20 21  2  0  0  0  0
 21 22  1  0  0  0  0
 21 23  1  0  0  0  0
 23 24  2  0  0  0  0
 25 26  2  0  0  0  0
 25 30  1  0  0  0  0
 26 27  1  0  0  0  0
 27 28  2  0  0  0  0
 28 29  1  0  0  0  0
 28 31  1  0  0  0  0
 29 30  2  0  0  0  0
 31 32  1  0  0  0  0
 31 33  1  0  0  0  0
M  END
$$$$

 OpenBabel12191814062D

 56 57  0  0  0  0  0  0  0  0999 V2000
   15.7184  -14.8500    0.0000 C   0  0  0  0  0  0  0  0  0  0  0  0
   15.7184  -14.0250    0.0000 O   0  0  0  0  0  0  0  0  0  0  0  0
   15.0039  -13.6125    0.0000 C   0  0  0  0  0  0  0  0  0  0  0  0
   14.2894  -14.0250    0.0000 O   0  0  0  0  0  0  0  0  0  0  0  0
   15.0039  -12.7875    0.0000 C   0  0  3  0  0  0  0  0  0  0  0  0
   14.2894  -12.3750    0.0000 C   0  0  0  0  0  0  0  0  0  0  0  0
   13.5749  -12.7875    0.0000 C   0  0  0  0  0  0  0  0  0  0  0  0
   12.8605  -12.3750    0.0000 C   0  0  0  0  0  0  0  0  0  0  0  0
   12.1460  -12.7875    0.0000 C   0  0  0  0  0  0  0  0  0  0  0  0
   11.4315  -12.3750    0.0000 N   0  0  0  0  0  0  0  0  0  0  0  0
   10.7171  -12.7875    0.0000 C   0  0  0  0  0  0  0  0  0  0  0  0
   10.7171  -13.6125    0.0000 O   0  0  0  0  0  0  0  0  0  0  0  0
   10.0026  -12.3750    0.0000 C   0  0  3  0  0  0  0  0  0  0  0  0
    9.2881  -12.7875    0.0000 C   0  0  0  0  0  0  0  0  0  0  0  0
    8.5737  -12.3750    0.0000 C   0  0  0  0  0  0  0  0  0  0  0  0
    7.8592  -12.7875    0.0000 C   0  0  0  0  0  0  0  0  0  0  0  0
    7.8592  -13.6125    0.0000 O   0  0  0  0  0  0  0  0  0  0  0  0
    7.1447  -12.3750    0.0000 O   0  0  0  0  0  0  0  0  0  0  0  0
    6.4302  -12.7875    0.0000 C   0  0  0  0  0  0  0  0  0  0  0  0
    6.4302  -13.6125    0.0000 C   0  0  0  0  0  0  0  0  0  0  0  0
    7.1447  -14.0250    0.0000 C   0  0  0  0  0  0  0  0  0  0  0  0
    7.1447  -14.8500    0.0000 C   0  0  0  0  0  0  0  0  0  0  0  0
    6.4302  -15.2625    0.0000 C   0  0  0  0  0  0  0  0  0  0  0  0
    5.7158  -14.8500    0.0000 C   0  0  0  0  0  0  0  0  0  0  0  0
    5.7158  -14.0250    0.0000 C   0  0  0  0  0  0  0  0  0  0  0  0
   10.0026  -11.5500    0.0000 N   0  0  0  0  0  0  0  0  0  0  0  0
    9.2881  -11.1375    0.0000 C   0  0  0  0  0  0  0  0  0  0  0  0
    9.2881  -10.3125    0.0000 O   0  0  0  0  0  0  0  0  0  0  0  0
    8.5737  -11.5500    0.0000 O   0  0  0  0  0  0  0  0  0  0  0  0
    7.8592  -11.1375    0.0000 C   0  0  0  0  0  0  0  0  0  0  0  0
    8.2717  -10.4230    0.0000 C   0  0  0  0  0  0  0  0  0  0  0  0
    7.4467  -11.8520    0.0000 C   0  0  0  0  0  0  0  0  0  0  0  0
    7.1447  -10.7250    0.0000 C   0  0  0  0  0  0  0  0  0  0  0  0
   15.7184  -12.3750    0.0000 N   0  0  0  0  0  0  0  0  0  0  0  0
   16.4328  -12.7875    0.0000 C   0  0  0  0  0  0  0  0  0  0  0  0
   16.4328  -13.6125    0.0000 O   0  0  0  0  0  0  0  0  0  0  0  0
   17.1473  -12.3750    0.0000 C   0  0  3  0  0  0  0  0  0  0  0  0
   17.8618  -12.7875    0.0000 C   0  0  0  0  0  0  0  0  0  0  0  0
   18.5762  -12.3750    0.0000 C   0  0  0  0  0  0  0  0  0  0  0  0
   18.5762  -11.5500    0.0000 O   0  0  0  0  0  0  0  0  0  0  0  0
   19.2907  -12.7875    0.0000 O   0  0  0  0  0  0  0  0  0  0  0  0
   20.0052  -12.3750    0.0000 C   0  0  0  0  0  0  0  0  0  0  0  0
   20.7197  -12.7875    0.0000 C   0  0  0  0  0  0  0  0  0  0  0  0
   21.4341  -12.3750    0.0000 C   0  0  0  0  0  0  0  0  0  0  0  0
   22.1486  -12.7875    0.0000 C   0  0  0  0  0  0  0  0  0  0  0  0
   22.1486  -13.6125    0.0000 C   0  0  0  0  0  0  0  0  0  0  0  0
   21.4341  -14.0250    0.0000 C   0  0  0  0  0  0  0  0  0  0  0  0
   20.7197  -13.6125    0.0000 C   0  0  0  0  0  0  0  0  0  0  0  0
   17.1473  -11.5500    0.0000 N   0  0  0  0  0  0  0  0  0  0  0  0
   16.4328  -11.1375    0.0000 C   0  0  0  0  0  0  0  0  0  0  0  0
   16.4328  -10.3125    0.0000 O   0  0  0  0  0  0  0  0  0  0  0  0
   15.7184  -11.5500    0.0000 O   0  0  0  0  0  0  0  0  0  0  0  0
   15.0039  -11.1375    0.0000 C   0  0  0  0  0  0  0  0  0  0  0  0
   15.4164  -10.4230    0.0000 C   0  0  0  0  0  0  0  0  0  0  0  0
   14.5914  -11.8520    0.0000 C   0  0  0  0  0  0  0  0  0  0  0  0
   14.2894  -10.7250    0.0000 C   0  0  0  0  0  0  0  0  0  0  0  0
  1  2  1  0  0  0  0
  2  3  1  0  0  0  0
  3  4  2  0  0  0  0
  3  5  1  0  0  0  0
  5  6  1  0  0  0  0
  5 34  1  0  0  0  0
  6  7  1  0  0  0  0
  7  8  1  0  0  0  0
  8  9  1  0  0  0  0
  9 10  1  0  0  0  0
 10 11  1  0  0  0  0
 11 12  2  0  0  0  0
 11 13  1  0  0  0  0
 13 14  1  0  0  0  0
 13 26  1  0  0  0  0
 14 15  1  0  0  0  0
 15 16  1  0  0  0  0
 16 17  2  0  0  0  0
 16 18  1  0  0  0  0
 18 19  1  0  0  0  0
 19 20  1  0  0  0  0
 20 21  2  0  0  0  0
 20 25  1  0  0  0  0
 21 22  1  0  0  0  0
 22 23  2  0  0  0  0
 23 24  1  0  0  0  0
 24 25  2  0  0  0  0
 26 27  1  0  0  0  0
 27 28  2  0  0  0  0
 27 29  1  0  0  0  0
 29 30  1  0  0  0  0
 30 31  1  0  0  0  0
 30 32  1  0  0  0  0
 30 33  1  0  0  0  0
 34 35  1  0  0  0  0
 35 36  2  0  0  0  0
 35 37  1  0  0  0  0
 37 38  1  0  0  0  0
 37 49  1  0  0  0  0
 38 39  1  0  0  0  0
 39 40  2  0  0  0  0
 39 41  1  0  0  0  0
 41 42  1  0  0  0  0
 42 43  1  0  0  0  0
 43 44  2  0  0  0  0
 43 48  1  0  0  0  0
 44 45  1  0  0  0  0
 45 46  2  0  0  0  0
 46 47  1  0  0  0  0
 47 48  2  0  0  0  0
 49 50  1  0  0  0  0
 50 51  2  0  0  0  0
 50 52  1  0  0  0  0
 52 53  1  0  0  0  0
 53 54  1  0  0  0  0
 53 55  1  0  0  0  0
 53 56  1  0  0  0  0
M  END
$$$$

 OpenBabel12191814062D

 26 25  0  0  0  0  0  0  0  0999 V2000
    5.3625    2.1434    0.0000 C   0  0  0  0  0  0  0  0  0  0  0  0
    4.9500    1.4289    0.0000 O   0  0  0  0  0  0  0  0  0  0  0  0
    4.1250    1.4289    0.0000 C   0  0  0  0  0  0  0  0  0  0  0  0
    3.7125    2.1434    0.0000 O   0  0  0  0  0  0  0  0  0  0  0  0
    3.7125    0.7145    0.0000 C   0  0  3  0  0  0  0  0  0  0  0  0
    2.8875    0.7145    0.0000 C   0  0  0  0  0  0  0  0  0  0  0  0
    2.4750   -0.0000    0.0000 S   0  0  0  0  0  0  0  0  0  0  0  0
    1.6500   -0.0000    0.0000 C   0  0  0  0  0  0  0  0  0  0  0  0
    1.2375   -0.7145    0.0000 C   0  0  0  0  0  0  0  0  0  0  0  0
    0.4125   -0.7145    0.0000 C   0  0  0  0  0  0  0  0  0  0  0  0
    0.0000    0.0000    0.0000 C   0  0  0  0  0  0  0  0  0  0  0  0
   -0.0000   -1.4289    0.0000 C   0  0  0  0  0  0  0  0  0  0  0  0
   -0.8250   -1.4289    0.0000 C   0  0  0  0  0  0  0  0  0  0  0  0
   -1.2375   -2.1434    0.0000 C   0  0  0  0  0  0  0  0  0  0  0  0
   -2.0625   -2.1434    0.0000 C   0  0  0  0  0  0  0  0  0  0  0  0
   -2.4750   -1.4289    0.0000 C   0  0  0  0  0  0  0  0  0  0  0  0
   -2.4750   -2.8579    0.0000 C   0  0  0  0  0  0  0  0  0  0  0  0
   -3.3000   -2.8579    0.0000 C   0  0  0  0  0  0  0  0  0  0  0  0
   -3.7125   -3.5724    0.0000 C   0  0  0  0  0  0  0  0  0  0  0  0
   -4.5375   -3.5724    0.0000 C   0  0  0  0  0  0  0  0  0  0  0  0
   -4.9500   -4.2868    0.0000 C   0  0  0  0  0  0  0  0  0  0  0  0
   -4.9500   -2.8579    0.0000 C   0  0  0  0  0  0  0  0  0  0  0  0
    4.1250   -0.0000    0.0000 N   0  0  0  0  0  0  0  0  0  0  0  0
    4.9500   -0.0000    0.0000 C   0  0  0  0  0  0  0  0  0  0  0  0
    5.3625    0.7145    0.0000 C   0  0  0  0  0  0  0  0  0  0  0  0
    5.3625   -0.7145    0.0000 O   0  0  0  0  0  0  0  0  0  0  0  0
  1  2  1  0  0  0  0
  2  3  1  0  0  0  0
  3  4  2  0  0  0  0
  3  5  1  0  0  0  0
  5  6  1  0  0  0  0
  5 23  1  0  0  0  0
  6  7  1  0  0  0  0
  7  8  1  0  0  0  0
  8  9  1  0  0  0  0
  9 10  2  0  0  0  0
 10 11  1  0  0  0  0
 10 12  1  0  0  0  0
 12 13  1  0  0  0  0
 13 14  1  0  0  0  0
 14 15  2  0  0  0  0
 15 16  1  0  0  0  0
 15 17  1  0  0  0  0
 17 18  1  0  0  0  0
 18 19  1  0  0  0  0
 19 20  2  0  0  0  0
 20 21  1  0  0  0  0
 20 22  1  0  0  0  0
 23 24  1  0  0  0  0
 24 25  1  0  0  0  0
 24 26  2  0  0  0  0
M  END
$$$$

 OpenBabel12191814062D

 28 27  0  0  0  0  0  0  0  0999 V2000
    1.0461    1.4289    0.0000 C   0  0  0  0  0  0  0  0  0  0  0  0
    1.7605    1.8414    0.0000 O   0  0  0  0  0  0  0  0  0  0  0  0
    2.4750    1.4289    0.0000 C   0  0  0  0  0  0  0  0  0  0  0  0
    2.4750    0.6039    0.0000 O   0  0  0  0  0  0  0  0  0  0  0  0
    3.1895    1.8414    0.0000 C   0  0  3  0  0  0  0  0  0  0  0  0
    3.1895    2.6664    0.0000 N   0  0  0  0  0  0  0  0  0  0  0  0
    3.9039    1.4289    0.0000 C   0  0  0  0  0  0  0  0  0  0  0  0
    4.6184    1.8414    0.0000 S   0  0  0  0  0  0  0  0  0  0  0  0
    5.3329    1.4289    0.0000 C   0  0  0  0  0  0  0  0  0  0  0  0
    6.0474    1.8414    0.0000 C   0  0  0  0  0  0  0  0  0  0  0  0
    6.7618    1.4289    0.0000 C   0  0  0  0  0  0  0  0  0  0  0  0
    6.7618    0.6039    0.0000 C   0  0  0  0  0  0  0  0  0  0  0  0
    7.4763    1.8414    0.0000 C   0  0  0  0  0  0  0  0  0  0  0  0
    8.1908    1.4289    0.0000 C   0  0  0  0  0  0  0  0  0  0  0  0
    8.9052    1.8414    0.0000 C   0  0  0  0  0  0  0  0  0  0  0  0
    9.6197    1.4289    0.0000 C   0  0  0  0  0  0  0  0  0  0  0  0
    9.6197    0.6039    0.0000 C   0  0  0  0  0  0  0  0  0  0  0  0
   10.3342    1.8414    0.0000 C   0  0  0  0  0  0  0  0  0  0  0  0
   11.0487    1.4289    0.0000 C   0  0  0  0  0  0  0  0  0  0  0  0
   11.7631    1.8414    0.0000 C   0  0  0  0  0  0  0  0  0  0  0  0
   12.4776    1.4289    0.0000 C   0  0  0  0  0  0  0  0  0  0  0  0
   12.4776    0.6039    0.0000 C   0  0  0  0  0  0  0  0  0  0  0  0
   13.1921    1.8414    0.0000 C   0  0  0  0  0  0  0  0  0  0  0  0
   13.9065    1.4289    0.0000 C   0  0  0  0  0  0  0  0  0  0  0  0
   14.6210    1.8414    0.0000 C   0  0  0  0  0  0  0  0  0  0  0  0
   15.3355    1.4289    0.0000 C   0  0  0  0  0  0  0  0  0  0  0  0
   16.0499    1.8414    0.0000 C   0  0  0  0  0  0  0  0  0  0  0  0
   15.3355    0.6039    0.0000 C   0  0  0  0  0  0  0  0  0  0  0  0
  1  2  1  0  0  0  0
  2  3  1  0  0  0  0
  3  4  2  0  0  0  0
  3  5  1  0  0  0  0
  5  6  1  0  0  0  0
  5  7  1  0  0  0  0
  7  8  1  0  0  0  0
  8  9  1  0  0  0  0
  9 10  1  0  0  0  0
 10 11  2  0  0  0  0
 11 12  1  0  0  0  0
 11 13  1  0  0  0  0
 13 14  1  0  0  0  0
 14 15  1  0  0  0  0
 15 16  2  0  0  0  0
 16 17  1  0  0  0  0
 16 18  1  0  0  0  0
 18 19  1  0  0  0  0
 19 20  1  0  0  0  0
 20 21  2  0  0  0  0
 21 22  1  0  0  0  0
 21 23  1  0  0  0  0
 23 24  1  0  0  0  0
 24 25  1  0  0  0  0
 25 26  2  0  0  0  0
 26 27  1  0  0  0  0
 26 28  1  0  0  0  0
M  END
$$$$

 OpenBabel12191814062D

 38 41  0  0  0  0  0  0  0  0999 V2000
   -0.5887   -1.5663    0.0000 C   0  0  0  0  0  0  0  0  0  0  0  0
   -0.5887   -2.3913    0.0000 O   0  0  0  0  0  0  0  0  0  0  0  0
    0.1258   -2.8038    0.0000 C   0  0  0  0  0  0  0  0  0  0  0  0
    0.1258   -3.6288    0.0000 O   0  0  0  0  0  0  0  0  0  0  0  0
    0.8403   -2.3913    0.0000 C   0  0  0  0  0  0  0  0  0  0  0  0
    0.8403   -1.5663    0.0000 C   0  0  0  0  0  0  0  0  0  0  0  0
    0.1258   -1.1538    0.0000 C   0  0  0  0  0  0  0  0  0  0  0  0
    1.5547   -1.1538    0.0000 N   0  0  0  0  0  0  0  0  0  0  0  0
    2.2692   -1.5663    0.0000 C   0  0  0  0  0  0  0  0  0  0  0  0
    2.9837   -1.1538    0.0000 C   0  0  0  0  0  0  0  0  0  0  0  0
    2.2692   -2.3913    0.0000 C   0  0  0  0  0  0  0  0  0  0  0  0
    1.5547   -2.8038    0.0000 C   0  0  3  0  0  0  0  0  0  0  0  0
    1.5547   -3.6288    0.0000 C   0  0  0  0  0  0  0  0  0  0  0  0
    2.2222   -4.1137    0.0000 C   0  0  0  0  0  0  0  0  0  0  0  0
    1.9672   -4.8984    0.0000 N   0  0  0  0  0  0  0  0  0  0  0  0
    1.1422   -4.8984    0.0000 N   0  0  0  0  0  0  0  0  0  0  0  0
    0.5902   -5.5115    0.0000 C   0  0  0  0  0  0  0  0  0  0  0  0
   -0.2168   -5.3399    0.0000 C   0  0  0  0  0  0  0  0  0  0  0  0
   -0.4717   -4.5553    0.0000 C   0  0  0  0  0  0  0  0  0  0  0  0
    0.0803   -3.9422    0.0000 C   0  0  0  0  0  0  0  0  0  0  0  0
    0.8873   -4.1137    0.0000 C   0  0  0  0  0  0  0  0  0  0  0  0
    3.0068   -3.8588    0.0000 C   0  0  0  0  0  0  0  0  0  0  0  0
    3.6199   -4.4108    0.0000 C   0  0  0  0  0  0  0  0  0  0  0  0
    3.1783   -3.0518    0.0000 C   0  0  0  0  0  0  0  0  0  0  0  0
    2.9837   -2.8038    0.0000 C   0  0  0  0  0  0  0  0  0  0  0  0
    3.7683   -3.0588    0.0000 O   0  0  0  0  0  0  0  0  0  0  0  0
    3.6981   -2.3913    0.0000 O   0  0  0  0  0  0  0  0  0  0  0  0
    4.4126   -2.8038    0.0000 C   0  0  0  0  0  0  0  0  0  0  0  0
    5.1271   -2.3913    0.0000 C   0  0  0  0  0  0  0  0  0  0  0  0
    5.8415   -2.8038    0.0000 N   0  0  0  0  0  0  0  0  0  0  0  0
    5.8415   -3.6288    0.0000 C   0  0  0  0  0  0  0  0  0  0  0  0
    6.5560   -2.3913    0.0000 C   0  0  0  0  0  0  0  0  0  0  0  0
    7.2705   -2.8038    0.0000 C   0  0  0  0  0  0  0  0  0  0  0  0
    7.9850   -2.3913    0.0000 C   0  0  0  0  0  0  0  0  0  0  0  0
    8.6994   -2.8038    0.0000 C   0  0  0  0  0  0  0  0  0  0  0  0
    8.6994   -3.6288    0.0000 C   0  0  0  0  0  0  0  0  0  0  0  0
    7.9850   -4.0413    0.0000 C   0  0  0  0  0  0  0  0  0  0  0  0
    7.2705   -3.6288    0.0000 C   0  0  0  0  0  0  0  0  0  0  0  0
  1  2  1  0  0  0  0
  2  3  1  0  0  0  0
  3  4  2  0  0  0  0
  3  5  1  0  0  0  0
  5  6  2  0  0  0  0
  5 12  1  0  0  0  0
  6  7  1  0  0  0  0
  6  8  1  0  0  0  0
  8  9  1  0  0  0  0
  9 10  1  0  0  0  0
  9 11  2  0  0  0  0
 11 12  1  0  0  0  0
 11 25  1  0  0  0  0
 12 13  1  0  0  0  0
 13 14  1  0  0  0  0
 13 21  2  0  0  0  0
 14 15  2  0  0  0  0
 14 22  1  0  0  0  0
 15 16  1  0  0  0  0
 16 17  1  0  0  0  0
 16 21  1  0  0  0  0
 17 18  2  0  0  0  0
 18 19  1  0  0  0  0
 19 20  2  0  0  0  0
 20 21  1  0  0  0  0
 22 23  1  0  0  0  0
 22 24  1  0  0  0  0
 25 26  2  0  0  0  0
 25 27  1  0  0  0  0
 27 28  1  0  0  0  0
 28 29  1  0  0  0  0
 29 30  1  0  0  0  0
 30 31  1  0  0  0  0
 30 32  1  0  0  0  0
 32 33  1  0  0  0  0
 33 34  2  0  0  0  0
 33 38  1  0  0  0  0
 34 35  1  0  0  0  0
 35 36  2  0  0  0  0
 36 37  1  0  0  0  0
 37 38  2  0  0  0  0
M  END
$$$$

 OpenBabel12191814062D

 46 50  0  0  0  0  0  0  0  0999 V2000
    5.2346   -2.1073    0.0000 C   0  0  0  0  0  0  0  0  0  0  0  0
    5.2346   -2.9323    0.0000 O   0  0  0  0  0  0  0  0  0  0  0  0
    5.9490   -3.3448    0.0000 C   0  0  0  0  0  0  0  0  0  0  0  0
    6.6635   -2.9323    0.0000 O   0  0  0  0  0  0  0  0  0  0  0  0
    5.9490   -4.1698    0.0000 C   0  0  0  0  0  0  0  0  0  0  0  0
    6.6635   -4.5823    0.0000 C   0  0  0  0  0  0  0  0  0  0  0  0
    7.3780   -4.1698    0.0000 C   0  0  0  0  0  0  0  0  0  0  0  0
    6.6635   -5.4073    0.0000 N   0  0  0  0  0  0  0  0  0  0  0  0
    5.9490   -5.8198    0.0000 C   0  0  0  0  0  0  0  0  0  0  0  0
    5.9490   -6.6448    0.0000 C   0  0  0  0  0  0  0  0  0  0  0  0
    5.2346   -5.4073    0.0000 C   0  0  0  0  0  0  0  0  0  0  0  0
    5.2346   -4.5823    0.0000 C   0  0  3  0  0  0  0  0  0  0  0  0
    4.5201   -4.1698    0.0000 C   0  0  0  0  0  0  0  0  0  0  0  0
    3.8056   -4.5823    0.0000 C   0  0  0  0  0  0  0  0  0  0  0  0
    3.0911   -4.1698    0.0000 C   0  0  0  0  0  0  0  0  0  0  0  0
    3.0911   -3.3448    0.0000 C   0  0  0  0  0  0  0  0  0  0  0  0
    2.3767   -2.9323    0.0000 O   0  0  0  0  0  0  0  0  0  0  0  0
    2.3767   -2.1073    0.0000 C   0  0  0  0  0  0  0  0  0  0  0  0
    3.8056   -2.9323    0.0000 C   0  0  0  0  0  0  0  0  0  0  0  0
    3.8056   -2.1073    0.0000 O   0  0  0  0  0  0  0  0  0  0  0  0
    4.5201   -1.6948    0.0000 C   0  0  0  0  0  0  0  0  0  0  0  0
    4.5201   -3.3448    0.0000 C   0  0  0  0  0  0  0  0  0  0  0  0
    4.5201   -5.8198    0.0000 C   0  0  0  0  0  0  0  0  0  0  0  0
    4.5201   -6.6448    0.0000 O   0  0  0  0  0  0  0  0  0  0  0  0
    3.8056   -5.4073    0.0000 O   0  0  0  0  0  0  0  0  0  0  0  0
    3.0911   -5.8198    0.0000 C   0  0  0  0  0  0  0  0  0  0  0  0
    2.3767   -5.4073    0.0000 C   0  0  0  0  0  0  0  0  0  0  0  0
    1.6622   -5.8198    0.0000 C   0  0  0  0  0  0  0  0  0  0  0  0
    0.9477   -5.4073    0.0000 N   0  0  0  0  0  0  0  0  0  0  0  0
    0.2333   -5.8198    0.0000 C   0  0  0  0  0  0  0  0  0  0  0  0
   -0.4812   -5.4073    0.0000 C   0  0  0  0  0  0  0  0  0  0  0  0
   -0.4812   -4.5823    0.0000 C   0  0  0  0  0  0  0  0  0  0  0  0
    0.2333   -4.1698    0.0000 C   0  0  0  0  0  0  0  0  0  0  0  0
    0.9477   -4.5823    0.0000 C   0  0  0  0  0  0  0  0  0  0  0  0
   -1.2742   -4.8097    0.0000 C   0  0  0  0  0  0  0  0  0  0  0  0
   -1.4738   -5.6102    0.0000 C   0  0  0  0  0  0  0  0  0  0  0  0
   -2.2669   -5.8376    0.0000 C   0  0  0  0  0  0  0  0  0  0  0  0
   -2.8603   -5.2645    0.0000 C   0  0  0  0  0  0  0  0  0  0  0  0
   -2.6607   -4.4640    0.0000 C   0  0  0  0  0  0  0  0  0  0  0  0
   -1.8677   -4.2366    0.0000 C   0  0  0  0  0  0  0  0  0  0  0  0
   -0.9184   -3.8827    0.0000 C   0  0  0  0  0  0  0  0  0  0  0  0
   -1.7429   -3.9115    0.0000 C   0  0  0  0  0  0  0  0  0  0  0  0
   -2.1801   -3.2118    0.0000 C   0  0  0  0  0  0  0  0  0  0  0  0
   -1.7928   -2.4834    0.0000 C   0  0  0  0  0  0  0  0  0  0  0  0
   -0.9683   -2.4546    0.0000 C   0  0  0  0  0  0  0  0  0  0  0  0
   -0.5311   -3.1543    0.0000 C   0  0  0  0  0  0  0  0  0  0  0  0
  1  2  1  0  0  0  0
  2  3  1  0  0  0  0
  3  4  2  0  0  0  0
  3  5  1  0  0  0  0
  5  6  2  0  0  0  0
  5 12  1  0  0  0  0
  6  7  1  0  0  0  0
  6  8  1  0  0  0  0
  8  9  1  0  0  0  0
  9 10  1  0  0  0  0
  9 11  2  0  0  0  0
 11 12  1  0  0  0  0
 11 23  1  0  0  0  0
 12 13  1  0  0  0  0
 13 14  2  0  0  0  0
 13 22  1  0  0  0  0
 14 15  1  0  0  0  0
 15 16  2  0  0  0  0
 16 17  1  0  0  0  0
 16 19  1  0  0  0  0
 17 18  1  0  0  0  0
 19 20  1  0  0  0  0
 19 22  2  0  0  0  0
 20 21  1  0  0  0  0
 23 24  2  0  0  0  0
 23 25  1  0  0  0  0
 25 26  1  0  0  0  0
 26 27  1  0  0  0  0
 27 28  1  0  0  0  0
 28 29  1  0  0  0  0
 29 30  1  0  0  0  0
 29 34  1  0  0  0  0
 30 31  1  0  0  0  0
 31 32  1  0  0  0  0
 32 33  1  0  0  0  0
 32 35  1  0  0  0  0
 32 41  1  0  0  0  0
 33 34  1  0  0  0  0
 35 36  2  0  0  0  0
 35 40  1  0  0  0  0
 36 37  1  0  0  0  0
 37 38  2  0  0  0  0
 38 39  1  0  0  0  0
 39 40  2  0  0  0  0
 41 42  2  0  0  0  0
 41 46  1  0  0  0  0
 42 43  1  0  0  0  0
 43 44  2  0  0  0  0
 44 45  1  0  0  0  0
 45 46  2  0  0  0  0
M  END
$$$$

 OpenBabel12191814062D

 37 40  0  0  0  0  0  0  0  0999 V2000
    5.0013    2.0625    0.0000 C   0  0  0  0  0  0  0  0  0  0  0  0
    5.0013    1.2375    0.0000 O   0  0  0  0  0  0  0  0  0  0  0  0
    5.7158    0.8250    0.0000 C   0  0  0  0  0  0  0  0  0  0  0  0
    6.4302    1.2375    0.0000 O   0  0  0  0  0  0  0  0  0  0  0  0
    5.7158    0.0000    0.0000 C   0  0  0  0  0  0  0  0  0  0  0  0
    6.4302   -0.4125    0.0000 C   0  0  0  0  0  0  0  0  0  0  0  0
    7.1447    0.0000    0.0000 C   0  0  0  0  0  0  0  0  0  0  0  0
    6.4302   -1.2375    0.0000 N   0  0  0  0  0  0  0  0  0  0  0  0
    5.7158   -1.6500    0.0000 C   0  0  0  0  0  0  0  0  0  0  0  0
    5.7158   -2.4750    0.0000 C   0  0  0  0  0  0  0  0  0  0  0  0
    5.0013   -1.2375    0.0000 C   0  0  0  0  0  0  0  0  0  0  0  0
    5.0013   -0.4125    0.0000 C   0  0  3  0  0  0  0  0  0  0  0  0
    4.2868    0.0000    0.0000 C   0  0  0  0  0  0  0  0  0  0  0  0
    3.5724   -0.4125    0.0000 C   0  0  0  0  0  0  0  0  0  0  0  0
    2.8579    0.0000    0.0000 C   0  0  0  0  0  0  0  0  0  0  0  0
    2.8579    0.8250    0.0000 C   0  0  0  0  0  0  0  0  0  0  0  0
    3.5724    1.2375    0.0000 C   0  0  0  0  0  0  0  0  0  0  0  0
    4.2868    0.8250    0.0000 C   0  0  0  0  0  0  0  0  0  0  0  0
    3.5724    2.0625    0.0000 N   0  3  0  0  0  0  0  0  0  0  0  0
    2.8579    2.4750    0.0000 O   0  5  0  0  0  0  0  0  0  0  0  0
    4.2868    2.4750    0.0000 O   0  0  0  0  0  0  0  0  0  0  0  0
    4.2868   -1.6500    0.0000 C   0  0  0  0  0  0  0  0  0  0  0  0
    4.2868   -2.4750    0.0000 O   0  0  0  0  0  0  0  0  0  0  0  0
    3.5724   -1.2375    0.0000 O   0  0  0  0  0  0  0  0  0  0  0  0
    2.8579   -1.6500    0.0000 C   0  0  3  0  0  0  0  0  0  0  0  0
    2.8579   -2.4750    0.0000 C   0  0  0  0  0  0  0  0  0  0  0  0
    2.1434   -2.8875    0.0000 C   0  0  0  0  0  0  0  0  0  0  0  0
    1.4289   -2.4750    0.0000 C   0  0  0  0  0  0  0  0  0  0  0  0
    1.4289   -1.6500    0.0000 N   0  0  0  0  0  0  0  0  0  0  0  0
    0.7145   -1.2375    0.0000 C   0  0  0  0  0  0  0  0  0  0  0  0
    0.7145   -0.4125    0.0000 C   0  0  0  0  0  0  0  0  0  0  0  0
    0.0000    0.0000    0.0000 C   0  0  0  0  0  0  0  0  0  0  0  0
    0.0000    0.8250    0.0000 C   0  0  0  0  0  0  0  0  0  0  0  0
    0.7145    1.2375    0.0000 C   0  0  0  0  0  0  0  0  0  0  0  0
    1.4289    0.8250    0.0000 C   0  0  0  0  0  0  0  0  0  0  0  0
    1.4289    0.0000    0.0000 C   0  0  0  0  0  0  0  0  0  0  0  0
    2.1434   -1.2375    0.0000 C   0  0  0  0  0  0  0  0  0  0  0  0
  1  2  1  0  0  0  0
  2  3  1  0  0  0  0
  3  4  2  0  0  0  0
  3  5  1  0  0  0  0
  5  6  2  0  0  0  0
  5 12  1  0  0  0  0
  6  7  1  0  0  0  0
  6  8  1  0  0  0  0
  8  9  1  0  0  0  0
  9 10  1  0  0  0  0
  9 11  2  0  0  0  0
 11 12  1  0  0  0  0
 11 22  1  0  0  0  0
 12 13  1  0  0  0  0
 13 14  2  0  0  0  0
 13 18  1  0  0  0  0
 14 15  1  0  0  0  0
 15 16  2  0  0  0  0
 16 17  1  0  0  0  0
 17 18  2  0  0  0  0
 17 19  1  0  0  0  0
 19 20  1  0  0  0  0
 19 21  2  0  0  0  0
 22 23  2  0  0  0  0
 22 24  1  0  0  0  0
 24 25  1  0  0  0  0
 25 26  1  0  0  0  0
 25 37  1  0  0  0  0
 26 27  1  0  0  0  0
 27 28  1  0  0  0  0
 28 29  1  0  0  0  0
 29 30  1  0  0  0  0
 29 37  1  0  0  0  0
 30 31  1  0  0  0  0
 31 32  2  0  0  0  0
 31 36  1  0  0  0  0
 32 33  1  0  0  0  0
 33 34  2  0  0  0  0
 34 35  1  0  0  0  0
 35 36  2  0  0  0  0
M  CHG  2  19   1  20  -1
M  END
$$$$

 OpenBabel12191814062D

 36 39  0  0  0  0  0  0  0  0999 V2000
   -0.1067    2.4134    0.0000 C   0  0  0  0  0  0  0  0  0  0  0  0
    0.6078    2.0009    0.0000 O   0  0  0  0  0  0  0  0  0  0  0  0
    1.3222    2.4134    0.0000 C   0  0  0  0  0  0  0  0  0  0  0  0
    1.3222    3.2384    0.0000 O   0  0  0  0  0  0  0  0  0  0  0  0
    2.0367    2.0009    0.0000 C   0  0  0  0  0  0  0  0  0  0  0  0
    2.7512    2.4134    0.0000 C   0  0  0  0  0  0  0  0  0  0  0  0
    2.7512    3.2384    0.0000 C   0  0  0  0  0  0  0  0  0  0  0  0
    3.4656    2.0009    0.0000 N   0  0  0  0  0  0  0  0  0  0  0  0
    3.4656    1.1759    0.0000 C   0  0  0  0  0  0  0  0  0  0  0  0
    4.1801    0.7634    0.0000 C   0  0  0  0  0  0  0  0  0  0  0  0
    2.7512    0.7634    0.0000 C   0  0  0  0  0  0  0  0  0  0  0  0
    2.0367    1.1759    0.0000 C   0  0  3  0  0  0  0  0  0  0  0  0
    1.3222    0.7634    0.0000 C   0  0  0  0  0  0  0  0  0  0  0  0
    1.3222   -0.0616    0.0000 C   0  0  0  0  0  0  0  0  0  0  0  0
    0.6078   -0.4741    0.0000 C   0  0  0  0  0  0  0  0  0  0  0  0
   -0.1067   -0.0616    0.0000 C   0  0  0  0  0  0  0  0  0  0  0  0
   -0.1067    0.7634    0.0000 C   0  0  0  0  0  0  0  0  0  0  0  0
    0.6078    1.1759    0.0000 C   0  0  0  0  0  0  0  0  0  0  0  0
   -0.8212    1.1759    0.0000 N   0  3  0  0  0  0  0  0  0  0  0  0
   -1.5356    0.7634    0.0000 O   0  5  0  0  0  0  0  0  0  0  0  0
   -0.8212    2.0009    0.0000 O   0  0  0  0  0  0  0  0  0  0  0  0
    2.7512   -0.0616    0.0000 C   0  0  0  0  0  0  0  0  0  0  0  0
    3.4656   -0.4741    0.0000 O   0  0  0  0  0  0  0  0  0  0  0  0
    2.0367   -0.4741    0.0000 O   0  0  0  0  0  0  0  0  0  0  0  0
    2.0367   -1.2991    0.0000 C   0  0  3  0  0  0  0  0  0  0  0  0
    2.7041   -1.7840    0.0000 C   0  0  0  0  0  0  0  0  0  0  0  0
    2.4492   -2.5687    0.0000 C   0  0  0  0  0  0  0  0  0  0  0  0
    1.6242   -2.5687    0.0000 N   0  0  0  0  0  0  0  0  0  0  0  0
    1.1393   -3.2361    0.0000 C   0  0  0  0  0  0  0  0  0  0  0  0
    0.3188   -3.1499    0.0000 C   0  0  0  0  0  0  0  0  0  0  0  0
   -0.1661   -3.8173    0.0000 C   0  0  0  0  0  0  0  0  0  0  0  0
   -0.9866   -3.7311    0.0000 C   0  0  0  0  0  0  0  0  0  0  0  0
   -1.3222   -2.9774    0.0000 C   0  0  0  0  0  0  0  0  0  0  0  0
   -0.8372   -2.3099    0.0000 C   0  0  0  0  0  0  0  0  0  0  0  0
   -0.0168   -2.3962    0.0000 C   0  0  0  0  0  0  0  0  0  0  0  0
    1.3693   -1.7840    0.0000 C   0  0  0  0  0  0  0  0  0  0  0  0
  1  2  1  0  0  0  0
  2  3  1  0  0  0  0
  3  4  2  0  0  0  0
  3  5  1  0  0  0  0
  5  6  2  0  0  0  0
  5 12  1  0  0  0  0
  6  7  1  0  0  0  0
  6  8  1  0  0  0  0
  8  9  1  0  0  0  0
  9 10  1  0  0  0  0
  9 11  2  0  0  0  0
 11 12  1  0  0  0  0
 11 22  1  0  0  0  0
 12 13  1  0  0  0  0
 13 14  2  0  0  0  0
 13 18  1  0  0  0  0
 14 15  1  0  0  0  0
 15 16  2  0  0  0  0
 16 17  1  0  0  0  0
 17 18  2  0  0  0  0
 17 19  1  0  0  0  0
 19 20  1  0  0  0  0
 19 21  2  0  0  0  0
 22 23  2  0  0  0  0
 22 24  1  0  0  0  0
 24 25  1  0  0  0  0
 25 26  1  0  0  0  0
 25 36  1  0  0  0  0
 26 27  1  0  0  0  0
 27 28  1  0  0  0  0
 28 29  1  0  0  0  0
 28 36  1  0  0  0  0
 29 30  1  0  0  0  0
 30 31  2  0  0  0  0
 30 35  1  0  0  0  0
 31 32  1  0  0  0  0
 32 33  2  0  0  0  0
 33 34  1  0  0  0  0
 34 35  2  0  0  0  0
M  CHG  2  19   1  20  -1
M  END
$$$$

 OpenBabel12191814062D

 35 37  0  0  0  0  0  0  0  0999 V2000
   -2.1434   -5.3625    0.0000 C   0  0  0  0  0  0  0  0  0  0  0  0
   -1.4289   -4.9500    0.0000 O   0  0  0  0  0  0  0  0  0  0  0  0
   -1.4289   -4.1250    0.0000 C   0  0  0  0  0  0  0  0  0  0  0  0
   -2.1434   -3.7125    0.0000 O   0  0  0  0  0  0  0  0  0  0  0  0
   -0.7145   -3.7125    0.0000 C   0  0  0  0  0  0  0  0  0  0  0  0
   -0.7145   -2.8875    0.0000 C   0  0  0  0  0  0  0  0  0  0  0  0
   -1.4289   -2.4750    0.0000 C   0  0  0  0  0  0  0  0  0  0  0  0
    0.0000   -2.4750    0.0000 N   0  0  0  0  0  0  0  0  0  0  0  0
    0.7145   -2.8875    0.0000 C   0  0  0  0  0  0  0  0  0  0  0  0
    1.4289   -2.4750    0.0000 C   0  0  0  0  0  0  0  0  0  0  0  0
    0.7145   -3.7125    0.0000 C   0  0  0  0  0  0  0  0  0  0  0  0
    0.0000   -4.1250    0.0000 C   0  0  3  0  0  0  0  0  0  0  0  0
    0.0000   -4.9500    0.0000 C   0  0  0  0  0  0  0  0  0  0  0  0
    0.7145   -5.3625    0.0000 C   0  0  0  0  0  0  0  0  0  0  0  0
    0.7145   -6.1875    0.0000 C   0  0  0  0  0  0  0  0  0  0  0  0
    0.0000   -6.6000    0.0000 C   0  0  0  0  0  0  0  0  0  0  0  0
   -0.7145   -6.1875    0.0000 C   0  0  0  0  0  0  0  0  0  0  0  0
   -0.7145   -5.3625    0.0000 C   0  0  0  0  0  0  0  0  0  0  0  0
   -1.4289   -6.6000    0.0000 N   0  3  0  0  0  0  0  0  0  0  0  0
   -1.4289   -7.4250    0.0000 O   0  5  0  0  0  0  0  0  0  0  0  0
   -2.1434   -6.1875    0.0000 O   0  0  0  0  0  0  0  0  0  0  0  0
    1.4289   -4.1250    0.0000 C   0  0  0  0  0  0  0  0  0  0  0  0
    1.4289   -4.9500    0.0000 O   0  0  0  0  0  0  0  0  0  0  0  0
    2.1434   -3.7125    0.0000 O   0  0  0  0  0  0  0  0  0  0  0  0
    2.8579   -4.1250    0.0000 C   0  0  0  0  0  0  0  0  0  0  0  0
    3.5724   -3.7125    0.0000 C   0  0  0  0  0  0  0  0  0  0  0  0
    4.2868   -4.1250    0.0000 N   0  0  0  0  0  0  0  0  0  0  0  0
    4.2868   -4.9500    0.0000 C   0  0  0  0  0  0  0  0  0  0  0  0
    5.0013   -3.7125    0.0000 C   0  0  0  0  0  0  0  0  0  0  0  0
    5.7158   -4.1250    0.0000 C   0  0  0  0  0  0  0  0  0  0  0  0
    6.4302   -3.7125    0.0000 C   0  0  0  0  0  0  0  0  0  0  0  0
    7.1447   -4.1250    0.0000 C   0  0  0  0  0  0  0  0  0  0  0  0
    7.1447   -4.9500    0.0000 C   0  0  0  0  0  0  0  0  0  0  0  0
    6.4302   -5.3625    0.0000 C   0  0  0  0  0  0  0  0  0  0  0  0
    5.7158   -4.9500    0.0000 C   0  0  0  0  0  0  0  0  0  0  0  0
  1  2  1  0  0  0  0
  2  3  1  0  0  0  0
  3  4  2  0  0  0  0
  3  5  1  0  0  0  0
  5  6  2  0  0  0  0
  5 12  1  0  0  0  0
  6  7  1  0  0  0  0
  6  8  1  0  0  0  0
  8  9  1  0  0  0  0
  9 10  1  0  0  0  0
  9 11  2  0  0  0  0
 11 12  1  0  0  0  0
 11 22  1  0  0  0  0
 12 13  1  0  0  0  0
 13 14  2  0  0  0  0
 13 18  1  0  0  0  0
 14 15  1  0  0  0  0
 15 16  2  0  0  0  0
 16 17  1  0  0  0  0
 17 18  2  0  0  0  0
 17 19  1  0  0  0  0
 19 20  1  0  0  0  0
 19 21  2  0  0  0  0
 22 23  2  0  0  0  0
 22 24  1  0  0  0  0
 24 25  1  0  0  0  0
 25 26  1  0  0  0  0
 26 27  1  0  0  0  0
 27 28  1  0  0  0  0
 27 29  1  0  0  0  0
 29 30  1  0  0  0  0
 30 31  2  0  0  0  0
 30 35  1  0  0  0  0
 31 32  1  0  0  0  0
 32 33  2  0  0  0  0
 33 34  1  0  0  0  0
 34 35  2  0  0  0  0
M  CHG  2  19   1  20  -1
M  END
$$$$

 OpenBabel12191814062D

 45 49  0  0  0  0  0  0  0  0999 V2000
    6.4302   -0.4125    0.0000 C   0  0  0  0  0  0  0  0  0  0  0  0
    6.4302   -1.2375    0.0000 O   0  0  0  0  0  0  0  0  0  0  0  0
    7.1447   -1.6500    0.0000 C   0  0  0  0  0  0  0  0  0  0  0  0
    7.8592   -1.2375    0.0000 O   0  0  0  0  0  0  0  0  0  0  0  0
    7.1447   -2.4750    0.0000 C   0  0  0  0  0  0  0  0  0  0  0  0
    7.8592   -2.8875    0.0000 C   0  0  0  0  0  0  0  0  0  0  0  0
    8.5737   -2.4750    0.0000 C   0  0  0  0  0  0  0  0  0  0  0  0
    7.8592   -3.7125    0.0000 N   0  0  0  0  0  0  0  0  0  0  0  0
    7.1447   -4.1250    0.0000 C   0  0  0  0  0  0  0  0  0  0  0  0
    7.1447   -4.9500    0.0000 C   0  0  0  0  0  0  0  0  0  0  0  0
    6.4302   -3.7125    0.0000 C   0  0  0  0  0  0  0  0  0  0  0  0
    6.4302   -2.8875    0.0000 C   0  0  3  0  0  0  0  0  0  0  0  0
    5.7158   -2.4750    0.0000 C   0  0  0  0  0  0  0  0  0  0  0  0
    5.0013   -2.8875    0.0000 C   0  0  0  0  0  0  0  0  0  0  0  0
    4.2868   -2.4750    0.0000 C   0  0  0  0  0  0  0  0  0  0  0  0
    4.2868   -1.6500    0.0000 C   0  0  0  0  0  0  0  0  0  0  0  0
    5.0013   -1.2375    0.0000 C   0  0  0  0  0  0  0  0  0  0  0  0
    5.7158   -1.6500    0.0000 C   0  0  0  0  0  0  0  0  0  0  0  0
    5.0013   -0.4125    0.0000 N   0  3  0  0  0  0  0  0  0  0  0  0
    4.2868    0.0000    0.0000 O   0  5  0  0  0  0  0  0  0  0  0  0
    5.7158    0.0000    0.0000 O   0  0  0  0  0  0  0  0  0  0  0  0
    5.7158   -4.1250    0.0000 C   0  0  0  0  0  0  0  0  0  0  0  0
    5.0013   -3.7125    0.0000 O   0  0  0  0  0  0  0  0  0  0  0  0
    5.7158   -4.9500    0.0000 O   0  0  0  0  0  0  0  0  0  0  0  0
    5.0013   -5.3625    0.0000 C   0  0  0  0  0  0  0  0  0  0  0  0
    5.0013   -6.1875    0.0000 C   0  0  0  0  0  0  0  0  0  0  0  0
    4.2868   -6.6000    0.0000 N   0  0  0  0  0  0  0  0  0  0  0  0
    4.2868   -7.4250    0.0000 C   0  0  0  0  0  0  0  0  0  0  0  0
    3.5724   -7.8375    0.0000 C   0  0  0  0  0  0  0  0  0  0  0  0
    2.8579   -7.4250    0.0000 N   0  0  0  0  0  0  0  0  0  0  0  0
    2.8579   -6.6000    0.0000 C   0  0  0  0  0  0  0  0  0  0  0  0
    3.5724   -6.1875    0.0000 C   0  0  0  0  0  0  0  0  0  0  0  0
    2.1434   -7.8375    0.0000 C   0  0  0  0  0  0  0  0  0  0  0  0
    2.1434   -8.6625    0.0000 C   0  0  0  0  0  0  0  0  0  0  0  0
    2.8579   -9.0750    0.0000 C   0  0  0  0  0  0  0  0  0  0  0  0
    2.8579   -9.9000    0.0000 C   0  0  0  0  0  0  0  0  0  0  0  0
    2.1434  -10.3125    0.0000 C   0  0  0  0  0  0  0  0  0  0  0  0
    1.4289   -9.9000    0.0000 C   0  0  0  0  0  0  0  0  0  0  0  0
    1.4289   -9.0750    0.0000 C   0  0  0  0  0  0  0  0  0  0  0  0
    1.4289   -7.4250    0.0000 C   0  0  0  0  0  0  0  0  0  0  0  0
    0.7145   -7.8375    0.0000 C   0  0  0  0  0  0  0  0  0  0  0  0
    0.0000   -7.4250    0.0000 C   0  0  0  0  0  0  0  0  0  0  0  0
    0.0000   -6.6000    0.0000 C   0  0  0  0  0  0  0  0  0  0  0  0
    0.7145   -6.1875    0.0000 C   0  0  0  0  0  0  0  0  0  0  0  0
    1.4289   -6.6000    0.0000 C   0  0  0  0  0  0  0  0  0  0  0  0
  1  2  1  0  0  0  0
  2  3  1  0  0  0  0
  3  4  2  0  0  0  0
  3  5  1  0  0  0  0
  5  6  2  0  0  0  0
  5 12  1  0  0  0  0
  6  7  1  0  0  0  0
  6  8  1  0  0  0  0
  8  9  1  0  0  0  0
  9 10  1  0  0  0  0
  9 11  2  0  0  0  0
 11 12  1  0  0  0  0
 11 22  1  0  0  0  0
 12 13  1  0  0  0  0
 13 14  2  0  0  0  0
 13 18  1  0  0  0  0
 14 15  1  0  0  0  0
 15 16  2  0  0  0  0
 16 17  1  0  0  0  0
 17 18  2  0  0  0  0
 17 19  1  0  0  0  0
 19 20  1  0  0  0  0
 19 21  2  0  0  0  0
 22 23  2  0  0  0  0
 22 24  1  0  0  0  0
 24 25  1  0  0  0  0
 25 26  1  0  0  0  0
 26 27  1  0  0  0  0
 27 28  1  0  0  0  0
 27 32  1  0  0  0  0
 28 29  1  0  0  0  0
 29 30  1  0  0  0  0
 30 31  1  0  0  0  0
 30 33  1  0  0  0  0
 31 32  1  0  0  0  0
 33 34  1  0  0  0  0
 33 40  1  0  0  0  0
 34 35  2  0  0  0  0
 34 39  1  0  0  0  0
 35 36  1  0  0  0  0
 36 37  2  0  0  0  0
 37 38  1  0  0  0  0
 38 39  2  0  0  0  0
 40 41  2  0  0  0  0
 40 45  1  0  0  0  0
 41 42  1  0  0  0  0
 42 43  2  0  0  0  0
 43 44  1  0  0  0  0
 44 45  2  0  0  0  0
M  CHG  2  19   1  20  -1
M  END
$$$$

 OpenBabel12191814062D

 27 29  0  0  0  0  0  0  0  0999 V2000
    0.4210    2.0625    0.0000 C   0  0  0  0  0  0  0  0  0  0  0  0
    1.1355    2.4750    0.0000 O   0  0  0  0  0  0  0  0  0  0  0  0
    1.8500    2.0625    0.0000 C   0  0  0  0  0  0  0  0  0  0  0  0
    1.3651    1.3951    0.0000 O   0  0  0  0  0  0  0  0  0  0  0  0
    2.5645    2.4750    0.0000 C   0  0  0  0  0  0  0  0  0  0  0  0
    2.5645    3.3000    0.0000 C   0  0  0  0  0  0  0  0  0  0  0  0
    1.8500    3.7125    0.0000 C   0  0  0  0  0  0  0  0  0  0  0  0
    3.2789    3.7125    0.0000 N   0  0  0  0  0  0  0  0  0  0  0  0
    3.9934    3.3000    0.0000 C   0  0  0  0  0  0  0  0  0  0  0  0
    4.7079    3.7125    0.0000 C   0  0  0  0  0  0  0  0  0  0  0  0
    3.9934    2.4750    0.0000 C   0  0  0  0  0  0  0  0  0  0  0  0
    3.2789    2.0625    0.0000 C   0  0  3  0  0  0  0  0  0  0  0  0
    3.2789    1.2375    0.0000 C   0  0  0  0  0  0  0  0  0  0  0  0
    3.9934    0.8250    0.0000 C   0  0  0  0  0  0  0  0  0  0  0  0
    3.9934    0.0000    0.0000 C   0  0  0  0  0  0  0  0  0  0  0  0
    3.2789   -0.4125    0.0000 C   0  0  0  0  0  0  0  0  0  0  0  0
    2.5645    0.0000    0.0000 C   0  0  0  0  0  0  0  0  0  0  0  0
    1.7798   -0.2549    0.0000 N   0  0  0  0  0  0  0  0  0  0  0  0
    1.2949    0.4125    0.0000 O   0  0  0  0  0  0  0  0  0  0  0  0
    1.7798    1.0799    0.0000 N   0  0  0  0  0  0  0  0  0  0  0  0
    2.5645    0.8250    0.0000 C   0  0  0  0  0  0  0  0  0  0  0  0
    4.7079    2.0625    0.0000 C   0  0  0  0  0  0  0  0  0  0  0  0
    4.7079    1.2375    0.0000 O   0  0  0  0  0  0  0  0  0  0  0  0
    5.4223    2.4750    0.0000 O   0  0  0  0  0  0  0  0  0  0  0  0
    6.1368    2.0625    0.0000 C   0  0  0  0  0  0  0  0  0  0  0  0
    6.8513    2.4750    0.0000 C   0  0  0  0  0  0  0  0  0  0  0  0
    6.1368    1.2375    0.0000 C   0  0  0  0  0  0  0  0  0  0  0  0
  1  2  1  0  0  0  0
  2  3  1  0  0  0  0
  3  4  2  0  0  0  0
  3  5  1  0  0  0  0
  5  6  2  0  0  0  0
  5 12  1  0  0  0  0
  6  7  1  0  0  0  0
  6  8  1  0  0  0  0
  8  9  1  0  0  0  0
  9 10  1  0  0  0  0
  9 11  2  0  0  0  0
 11 12  1  0  0  0  0
 11 22  1  0  0  0  0
 12 13  1  0  0  0  0
 13 14  2  0  0  0  0
 13 21  1  0  0  0  0
 14 15  1  0  0  0  0
 15 16  2  0  0  0  0
 16 17  1  0  0  0  0
 17 18  2  0  0  0  0
 17 21  1  0  0  0  0
 18 19  1  0  0  0  0
 19 20  1  0  0  0  0
 20 21  2  0  0  0  0
 22 23  2  0  0  0  0
 22 24  1  0  0  0  0
 24 25  1  0  0  0  0
 25 26  1  0  0  0  0
 25 27  1  0  0  0  0
M  END
$$$$

 OpenBabel12191814062D

 25 26  0  0  0  0  0  0  0  0999 V2000
    2.2068   -0.2749    0.0000 C   0  0  0  0  0  0  0  0  0  0  0  0
    1.4289   -0.0000    0.0000 O   0  0  0  0  0  0  0  0  0  0  0  0
    1.0526   -0.3219    0.0000 C   0  0  0  0  0  0  0  0  0  0  0  0
    0.3381    0.0906    0.0000 O   0  0  0  0  0  0  0  0  0  0  0  0
    0.7145   -1.2375    0.0000 C   0  0  0  0  0  0  0  0  0  0  0  0
    1.4289   -1.6500    0.0000 C   0  0  0  0  0  0  0  0  0  0  0  0
    2.1434   -1.2375    0.0000 C   0  0  0  0  0  0  0  0  0  0  0  0
    1.4289   -2.4750    0.0000 N   0  0  0  0  0  0  0  0  0  0  0  0
    0.7145   -2.8875    0.0000 C   0  0  0  0  0  0  0  0  0  0  0  0
    0.7145   -3.7125    0.0000 C   0  0  0  0  0  0  0  0  0  0  0  0
    0.0000   -2.4750    0.0000 C   0  0  0  0  0  0  0  0  0  0  0  0
    0.0000   -1.6500    0.0000 C   0  0  3  0  0  0  0  0  0  0  0  0
   -0.7145   -1.2375    0.0000 C   0  0  0  0  0  0  0  0  0  0  0  0
   -1.4289   -1.6500    0.0000 C   0  0  0  0  0  0  0  0  0  0  0  0
   -2.1434   -1.2375    0.0000 C   0  0  0  0  0  0  0  0  0  0  0  0
   -2.1434   -0.4125    0.0000 C   0  0  0  0  0  0  0  0  0  0  0  0
   -1.4289   -0.0000    0.0000 C   0  0  0  0  0  0  0  0  0  0  0  0
   -0.7145   -0.4125    0.0000 C   0  0  0  0  0  0  0  0  0  0  0  0
    0.0000    0.0000    0.0000 N   0  3  0  0  0  0  0  0  0  0  0  0
    0.7145   -0.4125    0.0000 O   0  5  0  0  0  0  0  0  0  0  0  0
    0.0000    0.8250    0.0000 O   0  0  0  0  0  0  0  0  0  0  0  0
   -0.7145   -2.8875    0.0000 C   0  0  0  0  0  0  0  0  0  0  0  0
   -1.4289   -2.4750    0.0000 O   0  0  0  0  0  0  0  0  0  0  0  0
   -0.7145   -3.7125    0.0000 O   0  0  0  0  0  0  0  0  0  0  0  0
   -1.4289   -4.1250    0.0000 C   0  0  0  0  0  0  0  0  0  0  0  0
  1  2  1  0  0  0  0
  2  3  1  0  0  0  0
  3  4  2  0  0  0  0
  3  5  1  0  0  0  0
  5  6  2  0  0  0  0
  5 12  1  0  0  0  0
  6  7  1  0  0  0  0
  6  8  1  0  0  0  0
  8  9  1  0  0  0  0
  9 10  1  0  0  0  0
  9 11  2  0  0  0  0
 11 12  1  0  0  0  0
 11 22  1  0  0  0  0
 12 13  1  0  0  0  0
 13 14  2  0  0  0  0
 13 18  1  0  0  0  0
 14 15  1  0  0  0  0
 15 16  2  0  0  0  0
 16 17  1  0  0  0  0
 17 18  2  0  0  0  0
 18 19  1  0  0  0  0
 19 20  1  0  0  0  0
 19 21  2  0  0  0  0
 22 23  2  0  0  0  0
 22 24  1  0  0  0  0
 24 25  1  0  0  0  0
M  CHG  2  19   1  20  -1
M  END
$$$$

 OpenBabel12191814062D

 28 29  0  0  0  0  0  0  0  0999 V2000
   -4.3502   -2.6126    0.0000 C   0  0  0  0  0  0  0  0  0  0  0  0
   -3.5724   -2.8875    0.0000 O   0  0  0  0  0  0  0  0  0  0  0  0
   -3.1960   -2.5656    0.0000 C   0  0  0  0  0  0  0  0  0  0  0  0
   -2.4815   -2.9781    0.0000 O   0  0  0  0  0  0  0  0  0  0  0  0
   -2.8579   -1.6500    0.0000 C   0  0  0  0  0  0  0  0  0  0  0  0
   -3.5724   -1.2375    0.0000 C   0  0  0  0  0  0  0  0  0  0  0  0
   -4.2868   -1.6500    0.0000 C   0  0  0  0  0  0  0  0  0  0  0  0
   -3.5724   -0.4125    0.0000 N   0  0  0  0  0  0  0  0  0  0  0  0
   -2.8579    0.0000    0.0000 C   0  0  0  0  0  0  0  0  0  0  0  0
   -2.8579    0.8250    0.0000 C   0  0  0  0  0  0  0  0  0  0  0  0
   -2.1434   -0.4125    0.0000 C   0  0  0  0  0  0  0  0  0  0  0  0
   -2.1434   -1.2375    0.0000 C   0  0  3  0  0  0  0  0  0  0  0  0
   -1.4289   -1.6500    0.0000 C   0  0  0  0  0  0  0  0  0  0  0  0
   -0.7145   -1.2375    0.0000 C   0  0  0  0  0  0  0  0  0  0  0  0
    0.0000   -1.6500    0.0000 C   0  0  0  0  0  0  0  0  0  0  0  0
    0.0000   -2.4750    0.0000 C   0  0  0  0  0  0  0  0  0  0  0  0
   -0.7145   -2.8875    0.0000 C   0  0  0  0  0  0  0  0  0  0  0  0
   -1.4289   -2.4750    0.0000 C   0  0  0  0  0  0  0  0  0  0  0  0
   -2.1434   -2.8875    0.0000 N   0  3  0  0  0  0  0  0  0  0  0  0
   -2.8579   -2.4750    0.0000 O   0  5  0  0  0  0  0  0  0  0  0  0
   -2.1434   -3.7125    0.0000 O   0  0  0  0  0  0  0  0  0  0  0  0
   -1.4289   -0.0000    0.0000 C   0  0  0  0  0  0  0  0  0  0  0  0
   -1.4289    0.8250    0.0000 O   0  0  0  0  0  0  0  0  0  0  0  0
   -0.7145   -0.4125    0.0000 O   0  0  0  0  0  0  0  0  0  0  0  0
    0.0000   -0.0000    0.0000 C   0  0  0  0  0  0  0  0  0  0  0  0
    0.7145   -0.4125    0.0000 C   0  0  0  0  0  0  0  0  0  0  0  0
    1.4289   -0.0000    0.0000 C   0  0  0  0  0  0  0  0  0  0  0  0
    0.7145   -1.2375    0.0000 C   0  0  0  0  0  0  0  0  0  0  0  0
  1  2  1  0  0  0  0
  2  3  1  0  0  0  0
  3  4  2  0  0  0  0
  3  5  1  0  0  0  0
  5  6  2  0  0  0  0
  5 12  1  0  0  0  0
  6  7  1  0  0  0  0
  6  8  1  0  0  0  0
  8  9  1  0  0  0  0
  9 10  1  0  0  0  0
  9 11  2  0  0  0  0
 11 12  1  0  0  0  0
 11 22  1  0  0  0  0
 12 13  1  0  0  0  0
 13 14  2  0  0  0  0
 13 18  1  0  0  0  0
 14 15  1  0  0  0  0
 15 16  2  0  0  0  0
 16 17  1  0  0  0  0
 17 18  2  0  0  0  0
 18 19  1  0  0  0  0
 19 20  1  0  0  0  0
 19 21  2  0  0  0  0
 22 23  2  0  0  0  0
 22 24  1  0  0  0  0
 24 25  1  0  0  0  0
 25 26  1  0  0  0  0
 26 27  1  0  0  0  0
 26 28  1  0  0  0  0
M  CHG  2  19   1  20  -1
M  END
$$$$

 OpenBabel12191814062D

 46 50  0  0  0  0  0  0  0  0999 V2000
    5.2346   -2.1073    0.0000 C   0  0  0  0  0  0  0  0  0  0  0  0
    5.2346   -2.9323    0.0000 O   0  0  0  0  0  0  0  0  0  0  0  0
    5.9490   -3.3448    0.0000 C   0  0  0  0  0  0  0  0  0  0  0  0
    6.2846   -2.5912    0.0000 O   0  0  0  0  0  0  0  0  0  0  0  0
    5.9490   -4.1698    0.0000 C   0  0  0  0  0  0  0  0  0  0  0  0
    5.2346   -4.5823    0.0000 C   0  0  0  0  0  0  0  0  0  0  0  0
    4.5201   -4.1698    0.0000 C   0  0  0  0  0  0  0  0  0  0  0  0
    5.2346   -5.4073    0.0000 N   0  0  0  0  0  0  0  0  0  0  0  0
    5.9490   -5.8198    0.0000 C   0  0  0  0  0  0  0  0  0  0  0  0
    5.9490   -6.6448    0.0000 C   0  0  0  0  0  0  0  0  0  0  0  0
    6.6635   -5.4073    0.0000 C   0  0  0  0  0  0  0  0  0  0  0  0
    6.6635   -4.5823    0.0000 C   0  0  3  0  0  0  0  0  0  0  0  0
    7.3780   -4.1698    0.0000 C   0  0  0  0  0  0  0  0  0  0  0  0
    7.3780   -3.3448    0.0000 C   0  0  0  0  0  0  0  0  0  0  0  0
    6.6635   -2.9323    0.0000 C   0  0  0  0  0  0  0  0  0  0  0  0
    6.6635   -2.1073    0.0000 C   0  0  0  0  0  0  0  0  0  0  0  0
    7.3780   -1.6948    0.0000 C   0  0  0  0  0  0  0  0  0  0  0  0
    8.0924   -2.1073    0.0000 C   0  0  0  0  0  0  0  0  0  0  0  0
    8.0924   -2.9323    0.0000 C   0  0  0  0  0  0  0  0  0  0  0  0
    8.8069   -1.6948    0.0000 N   0  3  0  0  0  0  0  0  0  0  0  0
    8.8069   -0.8698    0.0000 O   0  5  0  0  0  0  0  0  0  0  0  0
    9.5214   -2.1073    0.0000 O   0  0  0  0  0  0  0  0  0  0  0  0
    7.3780   -5.8198    0.0000 C   0  0  0  0  0  0  0  0  0  0  0  0
    8.0924   -5.4073    0.0000 O   0  0  0  0  0  0  0  0  0  0  0  0
    7.3780   -6.6448    0.0000 O   0  0  0  0  0  0  0  0  0  0  0  0
    8.0924   -7.0573    0.0000 C   0  0  0  0  0  0  0  0  0  0  0  0
    8.0924   -7.8823    0.0000 C   0  0  0  0  0  0  0  0  0  0  0  0
    8.8069   -8.2948    0.0000 C   0  0  0  0  0  0  0  0  0  0  0  0
    8.8069   -9.1198    0.0000 N   0  0  0  0  0  0  0  0  0  0  0  0
    9.5214   -9.5323    0.0000 C   0  0  0  0  0  0  0  0  0  0  0  0
    9.5214  -10.3573    0.0000 C   0  0  0  0  0  0  0  0  0  0  0  0
    8.8069  -10.7698    0.0000 C   0  0  0  0  0  0  0  0  0  0  0  0
    8.0924  -10.3573    0.0000 C   0  0  0  0  0  0  0  0  0  0  0  0
    8.0924   -9.5323    0.0000 C   0  0  0  0  0  0  0  0  0  0  0  0
    9.4004  -11.3429    0.0000 C   0  0  0  0  0  0  0  0  0  0  0  0
   10.1934  -11.1155    0.0000 C   0  0  0  0  0  0  0  0  0  0  0  0
   10.7869  -11.6886    0.0000 C   0  0  0  0  0  0  0  0  0  0  0  0
   10.5873  -12.4891    0.0000 C   0  0  0  0  0  0  0  0  0  0  0  0
    9.7942  -12.7165    0.0000 C   0  0  0  0  0  0  0  0  0  0  0  0
    9.2008  -12.1434    0.0000 C   0  0  0  0  0  0  0  0  0  0  0  0
    8.4196  -11.4983    0.0000 C   0  0  0  0  0  0  0  0  0  0  0  0
    8.8568  -12.1979    0.0000 C   0  0  0  0  0  0  0  0  0  0  0  0
    8.4695  -12.9263    0.0000 C   0  0  0  0  0  0  0  0  0  0  0  0
    7.6450  -12.9551    0.0000 C   0  0  0  0  0  0  0  0  0  0  0  0
    7.2078  -12.2555    0.0000 C   0  0  0  0  0  0  0  0  0  0  0  0
    7.5951  -11.5271    0.0000 C   0  0  0  0  0  0  0  0  0  0  0  0
  1  2  1  0  0  0  0
  2  3  1  0  0  0  0
  3  4  2  0  0  0  0
  3  5  1  0  0  0  0
  5  6  2  0  0  0  0
  5 12  1  0  0  0  0
  6  7  1  0  0  0  0
  6  8  1  0  0  0  0
  8  9  1  0  0  0  0
  9 10  1  0  0  0  0
  9 11  2  0  0  0  0
 11 12  1  0  0  0  0
 11 23  1  0  0  0  0
 12 13  1  0  0  0  0
 13 14  1  0  0  0  0
 14 15  2  0  0  0  0
 14 19  1  0  0  0  0
 15 16  1  0  0  0  0
 16 17  2  0  0  0  0
 17 18  1  0  0  0  0
 18 19  2  0  0  0  0
 18 20  1  0  0  0  0
 20 21  1  0  0  0  0
 20 22  2  0  0  0  0
 23 24  2  0  0  0  0
 23 25  1  0  0  0  0
 25 26  1  0  0  0  0
 26 27  1  0  0  0  0
 27 28  1  0  0  0  0
 28 29  1  0  0  0  0
 29 30  1  0  0  0  0
 29 34  1  0  0  0  0
 30 31  1  0  0  0  0
 31 32  1  0  0  0  0
 32 33  1  0  0  0  0
 32 35  1  0  0  0  0
 32 41  1  0  0  0  0
 33 34  1  0  0  0  0
 35 36  2  0  0  0  0
 35 40  1  0  0  0  0
 36 37  1  0  0  0  0
 37 38  2  0  0  0  0
 38 39  1  0  0  0  0
 39 40  2  0  0  0  0
 41 42  2  0  0  0  0
 41 46  1  0  0  0  0
 42 43  1  0  0  0  0
 43 44  2  0  0  0  0
 44 45  1  0  0  0  0
 45 46  2  0  0  0  0
M  CHG  2  20   1  21  -1
M  END
$$$$

 OpenBabel12191814062D

 35 40  0  0  0  0  0  0  0  0999 V2000
    3.1037   -1.1001    0.0000 C   0  0  0  0  0  0  0  0  0  0  0  0
    2.8316   -1.8790    0.0000 O   0  0  0  0  0  0  0  0  0  0  0  0
    3.3700   -2.5041    0.0000 C   0  0  0  0  0  0  0  0  0  0  0  0
    4.1805   -2.3503    0.0000 O   0  0  0  0  0  0  0  0  0  0  0  0
    3.0978   -3.2829    0.0000 C   0  0  3  0  0  0  0  0  0  0  0  0
    2.2873   -3.4366    0.0000 C   0  0  3  0  0  0  0  0  0  0  0  0
    1.7489   -2.8115    0.0000 O   0  0  0  0  0  0  0  0  0  0  0  0
    2.0151   -4.2154    0.0000 C   0  0  0  0  0  0  0  0  0  0  0  0
    2.5535   -4.8405    0.0000 C   0  0  0  0  0  0  0  0  0  0  0  0
    3.3641   -4.6868    0.0000 C   0  0  3  0  0  0  0  0  0  0  0  0
    3.9025   -5.3119    0.0000 C   0  0  0  0  0  0  0  0  0  0  0  0
    4.7131   -5.1582    0.0000 N   0  0  3  0  0  0  0  0  0  0  0  0
    5.2515   -5.7833    0.0000 C   0  0  0  0  0  0  0  0  0  0  0  0
    6.0620   -5.6295    0.0000 C   0  0  0  0  0  0  0  0  0  0  0  0
    6.3342   -4.8507    0.0000 C   0  0  0  0  0  0  0  0  0  0  0  0
    5.7957   -4.2256    0.0000 C   0  0  0  0  0  0  0  0  0  0  0  0
    6.2239   -3.5204    0.0000 N   0  0  0  0  0  0  0  0  0  0  0  0
    7.0269   -3.7096    0.0000 C   0  0  0  0  0  0  0  0  0  0  0  0
    7.7048   -3.2395    0.0000 C   0  0  0  0  0  0  0  0  0  0  0  0
    8.4509   -3.5916    0.0000 C   0  0  0  0  0  0  0  0  0  0  0  0
    8.5191   -4.4138    0.0000 C   0  0  0  0  0  0  0  0  0  0  0  0
    7.8411   -4.8839    0.0000 C   0  0  0  0  0  0  0  0  0  0  0  0
    7.0950   -4.5318    0.0000 C   0  0  0  0  0  0  0  0  0  0  0  0
    4.9852   -4.3793    0.0000 C   0  0  3  0  0  0  0  0  0  0  0  0
    4.4468   -3.7542    0.0000 C   0  0  3  0  0  0  0  0  0  0  0  0
    4.7189   -2.9754    0.0000 O   0  0  0  0  0  0  0  0  0  0  0  0
    5.5295   -2.8217    0.0000 C   0  0  0  0  0  0  0  0  0  0  0  0
    6.3325   -3.0109    0.0000 O   0  0  0  0  0  0  0  0  0  0  0  0
    5.8016   -2.0429    0.0000 C   0  0  0  0  0  0  0  0  0  0  0  0
    5.2632   -1.4178    0.0000 C   0  0  0  0  0  0  0  0  0  0  0  0
    5.5354   -0.6390    0.0000 C   0  0  0  0  0  0  0  0  0  0  0  0
    6.3459   -0.4852    0.0000 C   0  0  0  0  0  0  0  0  0  0  0  0
    6.8843   -1.1103    0.0000 C   0  0  0  0  0  0  0  0  0  0  0  0
    6.6122   -1.8891    0.0000 C   0  0  0  0  0  0  0  0  0  0  0  0
    3.6362   -3.9080    0.0000 C   0  0  3  0  0  0  0  0  0  0  0  0
  1  2  1  0  0  0  0
  2  3  1  0  0  0  0
  3  4  2  0  0  0  0
  3  5  1  0  0  0  0
  5  6  1  0  0  0  0
  5 35  1  0  0  0  0
  6  7  1  0  0  0  0
  6  8  1  0  0  0  0
  8  9  1  0  0  0  0
  9 10  1  0  0  0  0
 10 11  1  0  0  0  0
 10 35  1  0  0  0  0
 11 12  1  0  0  0  0
 12 13  1  0  0  0  0
 12 24  1  0  0  0  0
 13 14  1  0  0  0  0
 14 15  1  0  0  0  0
 15 16  2  0  0  0  0
 15 23  1  0  0  0  0
 16 17  1  0  0  0  0
 16 24  1  0  0  0  0
 17 18  1  0  0  0  0
 18 19  2  0  0  0  0
 18 23  1  0  0  0  0
 19 20  1  0  0  0  0
 20 21  2  0  0  0  0
 21 22  1  0  0  0  0
 22 23  2  0  0  0  0
 24 25  1  0  0  0  0
 25 26  1  0  0  0  0
 25 35  1  0  0  0  0
 26 27  1  0  0  0  0
 27 28  2  0  0  0  0
 27 29  1  0  0  0  0
 29 30  2  0  0  0  0
 29 34  1  0  0  0  0
 30 31  1  0  0  0  0
 31 32  2  0  0  0  0
 32 33  1  0  0  0  0
 33 34  2  0  0  0  0
M  END
$$$$

 OpenBabel12191814062D

 31 35  0  0  0  0  0  0  0  0999 V2000
    2.6484    3.5730    0.0000 C   0  0  0  0  0  0  0  0  0  0  0  0
    2.6484    2.7480    0.0000 O   0  0  0  0  0  0  0  0  0  0  0  0
    1.9339    2.3355    0.0000 C   0  0  0  0  0  0  0  0  0  0  0  0
    1.2195    2.7480    0.0000 O   0  0  0  0  0  0  0  0  0  0  0  0
    1.9339    1.5105    0.0000 C   0  0  0  0  0  0  0  0  0  0  0  0
    2.6014    1.0256    0.0000 C   0  0  0  0  0  0  0  0  0  0  0  0
    3.4084    1.1971    0.0000 C   0  0  0  0  0  0  0  0  0  0  0  0
    3.9604    0.5840    0.0000 C   0  0  0  0  0  0  0  0  0  0  0  0
    3.7054   -0.2006    0.0000 C   0  0  0  0  0  0  0  0  0  0  0  0
    2.8985   -0.3721    0.0000 C   0  0  0  0  0  0  0  0  0  0  0  0
    2.3464    0.2410    0.0000 N   0  0  0  0  0  0  0  0  0  0  0  0
    1.5214    0.2410    0.0000 C   0  0  0  0  0  0  0  0  0  0  0  0
    0.9694   -0.3721    0.0000 C   0  0  0  0  0  0  0  0  0  0  0  0
    0.1624   -0.2006    0.0000 N   0  0  0  0  0  0  0  0  0  0  0  0
   -0.0925    0.5840    0.0000 C   0  0  0  0  0  0  0  0  0  0  0  0
    0.4595    1.1971    0.0000 N   0  0  0  0  0  0  0  0  0  0  0  0
    1.2665    1.0256    0.0000 C   0  0  0  0  0  0  0  0  0  0  0  0
    1.2243   -1.1567    0.0000 N   0  0  0  0  0  0  0  0  0  0  0  0
    2.0313   -1.3283    0.0000 C   0  0  0  0  0  0  0  0  0  0  0  0
    2.2863   -2.1129    0.0000 C   0  0  0  0  0  0  0  0  0  0  0  0
    1.7342   -2.7260    0.0000 N   0  0  0  0  0  0  0  0  0  0  0  0
    1.9892   -3.5106    0.0000 C   0  0  0  0  0  0  0  0  0  0  0  0
    2.7961   -3.6821    0.0000 C   0  0  0  0  0  0  0  0  0  0  0  0
    3.0511   -4.4668    0.0000 C   0  0  0  0  0  0  0  0  0  0  0  0
    3.8580   -4.6383    0.0000 C   0  0  0  0  0  0  0  0  0  0  0  0
    4.1130   -5.4229    0.0000 C   0  0  0  0  0  0  0  0  0  0  0  0
    3.5610   -6.0360    0.0000 C   0  0  0  0  0  0  0  0  0  0  0  0
    2.7540   -5.8645    0.0000 C   0  0  0  0  0  0  0  0  0  0  0  0
    2.4990   -5.0799    0.0000 C   0  0  0  0  0  0  0  0  0  0  0  0
    0.9273   -2.5545    0.0000 C   0  0  0  0  0  0  0  0  0  0  0  0
    0.6723   -1.7698    0.0000 C   0  0  0  0  0  0  0  0  0  0  0  0
  1  2  1  0  0  0  0
  2  3  1  0  0  0  0
  3  4  2  0  0  0  0
  3  5  1  0  0  0  0
  5  6  2  0  0  0  0
  5 17  1  0  0  0  0
  6  7  1  0  0  0  0
  6 11  1  0  0  0  0
  7  8  1  0  0  0  0
  8  9  1  0  0  0  0
  9 10  1  0  0  0  0
 10 11  1  0  0  0  0
 11 12  1  0  0  0  0
 12 13  2  0  0  0  0
 12 17  1  0  0  0  0
 13 14  1  0  0  0  0
 13 18  1  0  0  0  0
 14 15  2  0  0  0  0
 15 16  1  0  0  0  0
 16 17  2  0  0  0  0
 18 19  1  0  0  0  0
 18 31  1  0  0  0  0
 19 20  1  0  0  0  0
 20 21  1  0  0  0  0
 21 22  1  0  0  0  0
 21 30  1  0  0  0  0
 22 23  1  0  0  0  0
 23 24  1  0  0  0  0
 24 25  2  0  0  0  0
 24 29  1  0  0  0  0
 25 26  1  0  0  0  0
 26 27  2  0  0  0  0
 27 28  1  0  0  0  0
 28 29  2  0  0  0  0
 30 31  1  0  0  0  0
M  END
$$$$

 OpenBabel12191814062D

 36 40  0  0  0  0  0  0  0  0999 V2000
   -1.2032   -3.0233    0.0000 C   0  0  0  0  0  0  0  0  0  0  0  0
   -1.2032   -3.8483    0.0000 O   0  0  0  0  0  0  0  0  0  0  0  0
   -1.9177   -4.2608    0.0000 C   0  0  0  0  0  0  0  0  0  0  0  0
   -2.6322   -3.8483    0.0000 O   0  0  0  0  0  0  0  0  0  0  0  0
   -1.9177   -5.0858    0.0000 C   0  0  3  0  0  0  0  0  0  0  0  0
   -1.5052   -5.8003    0.0000 C   0  0  0  0  0  0  0  0  0  0  0  0
   -2.3302   -5.8003    0.0000 C   0  0  3  0  0  0  0  0  0  0  0  0
   -3.0447   -6.2128    0.0000 C   0  0  0  0  0  0  0  0  0  0  0  0
   -3.0447   -7.0378    0.0000 C   0  0  0  0  0  0  0  0  0  0  0  0
   -3.7591   -7.4503    0.0000 C   0  0  0  0  0  0  0  0  0  0  0  0
   -4.4736   -7.0378    0.0000 C   0  0  0  0  0  0  0  0  0  0  0  0
   -4.4736   -6.2128    0.0000 C   0  0  0  0  0  0  0  0  0  0  0  0
   -3.7591   -5.8003    0.0000 C   0  0  0  0  0  0  0  0  0  0  0  0
   -5.1881   -7.4503    0.0000 C   0  0  0  0  0  0  0  0  0  0  0  0
   -5.2743   -8.2708    0.0000 N   0  0  0  0  0  0  0  0  0  0  0  0
   -6.0813   -8.4423    0.0000 C   0  0  0  0  0  0  0  0  0  0  0  0
   -6.4938   -7.7278    0.0000 C   0  0  0  0  0  0  0  0  0  0  0  0
   -5.9417   -7.1147    0.0000 N   0  0  0  0  0  0  0  0  0  0  0  0
   -7.3143   -7.6416    0.0000 C   0  0  0  0  0  0  0  0  0  0  0  0
   -7.7992   -8.3090    0.0000 C   0  0  0  0  0  0  0  0  0  0  0  0
   -8.6197   -8.2228    0.0000 C   0  0  0  0  0  0  0  0  0  0  0  0
   -8.9552   -7.4691    0.0000 C   0  0  0  0  0  0  0  0  0  0  0  0
   -8.4703   -6.8017    0.0000 C   0  0  0  0  0  0  0  0  0  0  0  0
   -7.6498   -6.8879    0.0000 C   0  0  0  0  0  0  0  0  0  0  0  0
   -9.7757   -7.3829    0.0000 N   0  0  0  0  0  0  0  0  0  0  0  0
  -10.2606   -8.0503    0.0000 C   0  0  0  0  0  0  0  0  0  0  0  0
  -10.1113   -6.6292    0.0000 C   0  0  0  0  0  0  0  0  0  0  0  0
   -6.4168   -9.1960    0.0000 C   0  0  0  0  0  0  0  0  0  0  0  0
   -5.9319   -9.8634    0.0000 C   0  0  0  0  0  0  0  0  0  0  0  0
   -6.2675  -10.6171    0.0000 C   0  0  0  0  0  0  0  0  0  0  0  0
   -7.0880  -10.7033    0.0000 C   0  0  0  0  0  0  0  0  0  0  0  0
   -7.5729  -10.0359    0.0000 C   0  0  0  0  0  0  0  0  0  0  0  0
   -7.2373   -9.2822    0.0000 C   0  0  0  0  0  0  0  0  0  0  0  0
   -7.4235  -11.4570    0.0000 N   0  0  0  0  0  0  0  0  0  0  0  0
   -8.2440  -11.5432    0.0000 C   0  0  0  0  0  0  0  0  0  0  0  0
   -6.9386  -12.1245    0.0000 C   0  0  0  0  0  0  0  0  0  0  0  0
  1  2  1  0  0  0  0
  2  3  1  0  0  0  0
  3  4  2  0  0  0  0
  3  5  1  0  0  0  0
  5  6  1  0  0  0  0
  5  7  1  0  0  0  0
  6  7  1  0  0  0  0
  7  8  1  0  0  0  0
  8  9  2  0  0  0  0
  8 13  1  0  0  0  0
  9 10  1  0  0  0  0
 10 11  2  0  0  0  0
 11 12  1  0  0  0  0
 11 14  1  0  0  0  0
 12 13  2  0  0  0  0
 14 15  1  0  0  0  0
 14 18  2  0  0  0  0
 15 16  1  0  0  0  0
 16 17  2  0  0  0  0
 16 28  1  0  0  0  0
 17 18  1  0  0  0  0
 17 19  1  0  0  0  0
 19 20  2  0  0  0  0
 19 24  1  0  0  0  0
 20 21  1  0  0  0  0
 21 22  2  0  0  0  0
 22 23  1  0  0  0  0
 22 25  1  0  0  0  0
 23 24  2  0  0  0  0
 25 26  1  0  0  0  0
 25 27  1  0  0  0  0
 28 29  2  0  0  0  0
 28 33  1  0  0  0  0
 29 30  1  0  0  0  0
 30 31  2  0  0  0  0
 31 32  1  0  0  0  0
 31 34  1  0  0  0  0
 32 33  2  0  0  0  0
 34 35  1  0  0  0  0
 34 36  1  0  0  0  0
M  END
$$$$

 OpenBabel12191814062D

 33 36  0  0  0  0  0  0  0  0999 V2000
    0.0000    3.3000    0.0000 C   0  0  0  0  0  0  0  0  0  0  0  0
    0.0000    2.4750    0.0000 O   0  0  0  0  0  0  0  0  0  0  0  0
    0.7145    2.0625    0.0000 C   0  0  0  0  0  0  0  0  0  0  0  0
    1.4289    2.4750    0.0000 O   0  0  0  0  0  0  0  0  0  0  0  0
    0.7145    1.2375    0.0000 C   0  0  0  0  0  0  0  0  0  0  0  0
    1.4289    0.8250    0.0000 C   0  0  0  0  0  0  0  0  0  0  0  0
    1.4289   -0.0000    0.0000 C   0  0  0  0  0  0  0  0  0  0  0  0
    0.7145   -0.4125    0.0000 C   0  0  0  0  0  0  0  0  0  0  0  0
    0.0000   -0.0000    0.0000 C   0  0  0  0  0  0  0  0  0  0  0  0
    0.0000    0.8250    0.0000 C   0  0  0  0  0  0  0  0  0  0  0  0
    0.7145   -1.2375    0.0000 C   0  0  0  0  0  0  0  0  0  0  0  0
    1.3819   -1.7224    0.0000 N   0  0  0  0  0  0  0  0  0  0  0  0
    1.1270   -2.5070    0.0000 C   0  0  0  0  0  0  0  0  0  0  0  0
    0.3020   -2.5070    0.0000 C   0  0  0  0  0  0  0  0  0  0  0  0
    0.0470   -1.7224    0.0000 N   0  0  0  0  0  0  0  0  0  0  0  0
   -0.1830   -3.1745    0.0000 C   0  0  0  0  0  0  0  0  0  0  0  0
    0.1526   -3.9282    0.0000 C   0  0  0  0  0  0  0  0  0  0  0  0
   -0.3323   -4.5956    0.0000 C   0  0  0  0  0  0  0  0  0  0  0  0
   -1.1528   -4.5094    0.0000 C   0  0  0  0  0  0  0  0  0  0  0  0
   -1.4884   -3.7557    0.0000 C   0  0  0  0  0  0  0  0  0  0  0  0
   -1.0034   -3.0882    0.0000 C   0  0  0  0  0  0  0  0  0  0  0  0
   -1.6377   -5.1768    0.0000 N   0  0  0  0  0  0  0  0  0  0  0  0
   -1.3022   -5.9305    0.0000 C   0  0  0  0  0  0  0  0  0  0  0  0
   -2.4582   -5.0906    0.0000 C   0  0  0  0  0  0  0  0  0  0  0  0
    1.6119   -3.1745    0.0000 C   0  0  0  0  0  0  0  0  0  0  0  0
    2.4324   -3.0882    0.0000 C   0  0  0  0  0  0  0  0  0  0  0  0
    2.9173   -3.7557    0.0000 C   0  0  0  0  0  0  0  0  0  0  0  0
    2.5817   -4.5094    0.0000 C   0  0  0  0  0  0  0  0  0  0  0  0
    1.7613   -4.5956    0.0000 C   0  0  0  0  0  0  0  0  0  0  0  0
    1.2763   -3.9282    0.0000 C   0  0  0  0  0  0  0  0  0  0  0  0
    3.0667   -5.1768    0.0000 N   0  0  0  0  0  0  0  0  0  0  0  0
    2.7311   -5.9305    0.0000 C   0  0  0  0  0  0  0  0  0  0  0  0
    3.8871   -5.0906    0.0000 C   0  0  0  0  0  0  0  0  0  0  0  0
  1  2  1  0  0  0  0
  2  3  1  0  0  0  0
  3  4  2  0  0  0  0
  3  5  1  0  0  0  0
  5  6  2  0  0  0  0
  5 10  1  0  0  0  0
  6  7  1  0  0  0  0
  7  8  2  0  0  0  0
  8  9  1  0  0  0  0
  8 11  1  0  0  0  0
  9 10  2  0  0  0  0
 11 12  1  0  0  0  0
 11 15  2  0  0  0  0
 12 13  1  0  0  0  0
 13 14  2  0  0  0  0
 13 25  1  0  0  0  0
 14 15  1  0  0  0  0
 14 16  1  0  0  0  0
 16 17  2  0  0  0  0
 16 21  1  0  0  0  0
 17 18  1  0  0  0  0
 18 19  2  0  0  0  0
 19 20  1  0  0  0  0
 19 22  1  0  0  0  0
 20 21  2  0  0  0  0
 22 23  1  0  0  0  0
 22 24  1  0  0  0  0
 25 26  2  0  0  0  0
 25 30  1  0  0  0  0
 26 27  1  0  0  0  0
 27 28  2  0  0  0  0
 28 29  1  0  0  0  0
 28 31  1  0  0  0  0
 29 30  2  0  0  0  0
 31 32  1  0  0  0  0
 31 33  1  0  0  0  0
M  END
$$$$

 OpenBabel12191814062D

 32 34  0  0  0  0  0  0  0  0999 V2000
   -3.5724   -3.7125    0.0000 C   0  0  0  0  0  0  0  0  0  0  0  0
   -2.8579   -4.1250    0.0000 O   0  0  0  0  0  0  0  0  0  0  0  0
   -2.1434   -3.7125    0.0000 C   0  0  0  0  0  0  0  0  0  0  0  0
   -2.1434   -2.8875    0.0000 O   0  0  0  0  0  0  0  0  0  0  0  0
   -1.4289   -4.1250    0.0000 C   0  0  0  0  0  0  0  0  0  0  0  0
   -0.7145   -3.7125    0.0000 C   0  0  0  0  0  0  0  0  0  0  0  0
   -0.0000   -4.1250    0.0000 C   0  0  0  0  0  0  0  0  0  0  0  0
   -0.0000   -4.9500    0.0000 C   0  0  0  0  0  0  0  0  0  0  0  0
    0.7145   -5.3625    0.0000 N   0  0  0  0  0  0  0  0  0  0  0  0
    1.4289   -4.9500    0.0000 C   0  0  0  0  0  0  0  0  0  0  0  0
    2.1434   -5.3625    0.0000 C   0  0  3  0  0  0  0  0  0  0  0  0
    2.1434   -6.1875    0.0000 O   0  0  0  0  0  0  0  0  0  0  0  0
    2.8579   -4.9500    0.0000 C   0  0  0  0  0  0  0  0  0  0  0  0
    3.5724   -5.3625    0.0000 O   0  0  0  0  0  0  0  0  0  0  0  0
    4.2868   -4.9500    0.0000 C   0  0  0  0  0  0  0  0  0  0  0  0
    4.2868   -4.1250    0.0000 C   0  0  0  0  0  0  0  0  0  0  0  0
    5.0013   -3.7125    0.0000 C   0  0  0  0  0  0  0  0  0  0  0  0
    5.7158   -4.1250    0.0000 C   0  0  0  0  0  0  0  0  0  0  0  0
    5.7158   -4.9500    0.0000 C   0  0  0  0  0  0  0  0  0  0  0  0
    5.0013   -5.3625    0.0000 C   0  0  0  0  0  0  0  0  0  0  0  0
    5.0013   -6.1875    0.0000 C   0  0  0  0  0  0  0  0  0  0  0  0
    5.7158   -6.6000    0.0000 O   0  0  0  0  0  0  0  0  0  0  0  0
    4.2868   -6.6000    0.0000 C   0  0  0  0  0  0  0  0  0  0  0  0
    4.2868   -7.4250    0.0000 C   0  0  0  0  0  0  0  0  0  0  0  0
    5.0013   -7.8375    0.0000 C   0  0  0  0  0  0  0  0  0  0  0  0
    5.7158   -7.4250    0.0000 C   0  0  0  0  0  0  0  0  0  0  0  0
    6.4302   -7.8375    0.0000 C   0  0  0  0  0  0  0  0  0  0  0  0
    6.4302   -8.6625    0.0000 C   0  0  0  0  0  0  0  0  0  0  0  0
    5.7158   -9.0750    0.0000 C   0  0  0  0  0  0  0  0  0  0  0  0
    5.0013   -8.6625    0.0000 C   0  0  0  0  0  0  0  0  0  0  0  0
   -0.7145   -5.3625    0.0000 C   0  0  0  0  0  0  0  0  0  0  0  0
   -1.4289   -4.9500    0.0000 C   0  0  0  0  0  0  0  0  0  0  0  0
  1  2  1  0  0  0  0
  2  3  1  0  0  0  0
  3  4  2  0  0  0  0
  3  5  1  0  0  0  0
  5  6  2  0  0  0  0
  5 32  1  0  0  0  0
  6  7  1  0  0  0  0
  7  8  2  0  0  0  0
  8  9  1  0  0  0  0
  8 31  1  0  0  0  0
  9 10  1  0  0  0  0
 10 11  1  0  0  0  0
 11 12  1  0  0  0  0
 11 13  1  0  0  0  0
 13 14  1  0  0  0  0
 14 15  1  0  0  0  0
 15 16  2  0  0  0  0
 15 20  1  0  0  0  0
 16 17  1  0  0  0  0
 17 18  2  0  0  0  0
 18 19  1  0  0  0  0
 19 20  2  0  0  0  0
 20 21  1  0  0  0  0
 21 22  2  0  0  0  0
 21 23  1  0  0  0  0
 23 24  1  0  0  0  0
 24 25  1  0  0  0  0
 25 26  2  0  0  0  0
 25 30  1  0  0  0  0
 26 27  1  0  0  0  0
 27 28  2  0  0  0  0
 28 29  1  0  0  0  0
 29 30  2  0  0  0  0
 31 32  2  0  0  0  0
M  END
$$$$

 OpenBabel12191814062D

 27 28  0  0  0  0  0  0  0  0999 V2000
    3.5724   -5.3625    0.0000 C   0  0  0  0  0  0  0  0  0  0  0  0
    3.5724   -6.1875    0.0000 O   0  0  0  0  0  0  0  0  0  0  0  0
    4.2868   -6.6000    0.0000 C   0  0  0  0  0  0  0  0  0  0  0  0
    4.2868   -7.4250    0.0000 O   0  0  0  0  0  0  0  0  0  0  0  0
    5.0013   -6.1875    0.0000 C   0  0  0  0  0  0  0  0  0  0  0  0
    5.7158   -6.6000    0.0000 C   0  0  3  0  0  0  0  0  0  0  0  0
    5.7158   -7.4250    0.0000 O   0  0  0  0  0  0  0  0  0  0  0  0
    6.4302   -6.1875    0.0000 C   0  0  3  0  0  0  0  0  0  0  0  0
    6.4302   -5.3625    0.0000 C   0  0  0  0  0  0  0  0  0  0  0  0
    5.7158   -4.9500    0.0000 C   0  0  0  0  0  0  0  0  0  0  0  0
    5.0013   -5.3625    0.0000 C   0  0  0  0  0  0  0  0  0  0  0  0
    4.2868   -4.9500    0.0000 C   0  0  0  0  0  0  0  0  0  0  0  0
    4.2868   -4.1250    0.0000 C   0  0  0  0  0  0  0  0  0  0  0  0
    5.0013   -3.7125    0.0000 C   0  0  0  0  0  0  0  0  0  0  0  0
    5.7158   -4.1250    0.0000 C   0  0  0  0  0  0  0  0  0  0  0  0
    7.1447   -6.6000    0.0000 N   0  0  0  0  0  0  0  0  0  0  0  0
    7.1447   -7.4250    0.0000 C   0  0  0  0  0  0  0  0  0  0  0  0
    7.8592   -6.1875    0.0000 C   0  0  0  0  0  0  0  0  0  0  0  0
    7.8592   -5.3625    0.0000 O   0  0  0  0  0  0  0  0  0  0  0  0
    8.5737   -6.6000    0.0000 O   0  0  0  0  0  0  0  0  0  0  0  0
    9.2881   -6.1875    0.0000 C   0  0  0  0  0  0  0  0  0  0  0  0
   10.0026   -6.6000    0.0000 C   0  0  0  0  0  0  0  0  0  0  0  0
   10.7171   -6.1875    0.0000 C   0  0  0  0  0  0  0  0  0  0  0  0
   11.4315   -6.6000    0.0000 C   0  0  0  0  0  0  0  0  0  0  0  0
   11.4315   -7.4250    0.0000 C   0  0  0  0  0  0  0  0  0  0  0  0
   10.7171   -7.8375    0.0000 C   0  0  0  0  0  0  0  0  0  0  0  0
   10.0026   -7.4250    0.0000 C   0  0  0  0  0  0  0  0  0  0  0  0
  1  2  1  0  0  0  0
  2  3  1  0  0  0  0
  3  4  2  0  0  0  0
  3  5  1  0  0  0  0
  5  6  1  0  0  0  0
  6  7  1  0  0  0  0
  6  8  1  0  0  0  0
  8  9  1  0  0  0  0
  8 16  1  0  0  0  0
  9 10  1  0  0  0  0
 10 11  2  0  0  0  0
 10 15  1  0  0  0  0
 11 12  1  0  0  0  0
 12 13  2  0  0  0  0
 13 14  1  0  0  0  0
 14 15  2  0  0  0  0
 16 17  1  0  0  0  0
 16 18  1  0  0  0  0
 18 19  2  0  0  0  0
 18 20  1  0  0  0  0
 20 21  1  0  0  0  0
 21 22  1  0  0  0  0
 22 23  2  0  0  0  0
 22 27  1  0  0  0  0
 23 24  1  0  0  0  0
 24 25  2  0  0  0  0
 25 26  1  0  0  0  0
 26 27  2  0  0  0  0
M  END
$$$$

 OpenBabel12191814062D

 42 45  0  0  0  0  0  0  0  0999 V2000
    4.0992   -4.9181    0.0000 C   0  0  0  0  0  0  0  0  0  0  0  0
    4.8136   -5.3306    0.0000 O   0  0  0  0  0  0  0  0  0  0  0  0
    5.5281   -4.9181    0.0000 C   0  0  0  0  0  0  0  0  0  0  0  0
    5.5281   -4.0931    0.0000 O   0  0  0  0  0  0  0  0  0  0  0  0
    6.2426   -5.3306    0.0000 C   0  0  0  0  0  0  0  0  0  0  0  0
    6.9570   -4.9181    0.0000 C   0  0  3  0  0  0  0  0  0  0  0  0
    6.9570   -4.0931    0.0000 O   0  0  0  0  0  0  0  0  0  0  0  0
    7.6715   -5.3306    0.0000 C   0  0  0  0  0  0  0  0  0  0  0  0
    8.3860   -4.9181    0.0000 C   0  0  3  0  0  0  0  0  0  0  0  0
    8.3860   -4.0931    0.0000 O   0  0  0  0  0  0  0  0  0  0  0  0
    9.1005   -5.3306    0.0000 C   0  0  0  0  0  0  0  0  0  0  0  0
    9.8149   -4.9181    0.0000 C   0  0  0  0  0  0  0  0  0  0  0  0
   10.5294   -5.3306    0.0000 N   0  0  0  0  0  0  0  0  0  0  0  0
   11.2831   -4.9950    0.0000 C   0  0  0  0  0  0  0  0  0  0  0  0
   11.4546   -4.1881    0.0000 C   0  0  0  0  0  0  0  0  0  0  0  0
   12.2392   -3.9331    0.0000 C   0  0  0  0  0  0  0  0  0  0  0  0
   10.8415   -3.6360    0.0000 C   0  0  0  0  0  0  0  0  0  0  0  0
   11.8351   -5.6081    0.0000 C   0  0  0  0  0  0  0  0  0  0  0  0
   12.6556   -5.5219    0.0000 C   0  0  0  0  0  0  0  0  0  0  0  0
   13.1405   -6.1893    0.0000 O   0  0  0  0  0  0  0  0  0  0  0  0
   12.9911   -4.7682    0.0000 N   0  0  0  0  0  0  0  0  0  0  0  0
   13.8116   -4.6820    0.0000 C   0  0  0  0  0  0  0  0  0  0  0  0
   14.1472   -3.9283    0.0000 C   0  0  0  0  0  0  0  0  0  0  0  0
   14.9677   -3.8421    0.0000 C   0  0  0  0  0  0  0  0  0  0  0  0
   15.4526   -4.5095    0.0000 C   0  0  0  0  0  0  0  0  0  0  0  0
   15.1170   -5.2632    0.0000 C   0  0  0  0  0  0  0  0  0  0  0  0
   14.2966   -5.3494    0.0000 C   0  0  0  0  0  0  0  0  0  0  0  0
   11.4226   -6.3226    0.0000 C   0  0  0  0  0  0  0  0  0  0  0  0
   10.6156   -6.1511    0.0000 C   0  0  0  0  0  0  0  0  0  0  0  0
   10.0025   -6.7031    0.0000 C   0  0  0  0  0  0  0  0  0  0  0  0
   10.1741   -7.5101    0.0000 C   0  0  0  0  0  0  0  0  0  0  0  0
    9.5610   -8.0621    0.0000 C   0  0  0  0  0  0  0  0  0  0  0  0
    8.7764   -7.8072    0.0000 C   0  0  0  0  0  0  0  0  0  0  0  0
    8.1633   -8.3592    0.0000 F   0  0  0  0  0  0  0  0  0  0  0  0
    8.6048   -7.0002    0.0000 C   0  0  0  0  0  0  0  0  0  0  0  0
    9.2179   -6.4482    0.0000 C   0  0  0  0  0  0  0  0  0  0  0  0
   11.7582   -7.0763    0.0000 C   0  0  0  0  0  0  0  0  0  0  0  0
   12.5786   -7.1625    0.0000 C   0  0  0  0  0  0  0  0  0  0  0  0
   12.9142   -7.9162    0.0000 C   0  0  0  0  0  0  0  0  0  0  0  0
   12.4293   -8.5836    0.0000 C   0  0  0  0  0  0  0  0  0  0  0  0
   11.6088   -8.4974    0.0000 C   0  0  0  0  0  0  0  0  0  0  0  0
   11.2732   -7.7437    0.0000 C   0  0  0  0  0  0  0  0  0  0  0  0
  1  2  1  0  0  0  0
  2  3  1  0  0  0  0
  3  4  2  0  0  0  0
  3  5  1  0  0  0  0
  5  6  1  0  0  0  0
  6  7  1  0  0  0  0
  6  8  1  0  0  0  0
  8  9  1  0  0  0  0
  9 10  1  0  0  0  0
  9 11  1  0  0  0  0
 11 12  1  0  0  0  0
 12 13  1  0  0  0  0
 13 14  1  0  0  0  0
 13 29  1  0  0  0  0
 14 15  1  0  0  0  0
 14 18  2  0  0  0  0
 15 16  1  0  0  0  0
 15 17  1  0  0  0  0
 18 19  1  0  0  0  0
 18 28  1  0  0  0  0
 19 20  2  0  0  0  0
 19 21  1  0  0  0  0
 21 22  1  0  0  0  0
 22 23  2  0  0  0  0
 22 27  1  0  0  0  0
 23 24  1  0  0  0  0
 24 25  2  0  0  0  0
 25 26  1  0  0  0  0
 26 27  2  0  0  0  0
 28 29  2  0  0  0  0
 28 37  1  0  0  0  0
 29 30  1  0  0  0  0
 30 31  2  0  0  0  0
 30 36  1  0  0  0  0
 31 32  1  0  0  0  0
 32 33  2  0  0  0  0
 33 34  1  0  0  0  0
 33 35  1  0  0  0  0
 35 36  2  0  0  0  0
 37 38  2  0  0  0  0
 37 42  1  0  0  0  0
 38 39  1  0  0  0  0
 39 40  2  0  0  0  0
 40 41  1  0  0  0  0
 41 42  2  0  0  0  0
M  END
$$$$

 OpenBabel12191814062D

 35 38  0  0  0  0  0  0  0  0999 V2000
   -0.7145    4.5375    0.0000 C   0  0  0  0  0  0  0  0  0  0  0  0
   -0.7145    3.7125    0.0000 O   0  0  0  0  0  0  0  0  0  0  0  0
    0.0000    3.3000    0.0000 C   0  0  0  0  0  0  0  0  0  0  0  0
    0.7145    3.7125    0.0000 O   0  0  0  0  0  0  0  0  0  0  0  0
    0.0000    2.4750    0.0000 C   0  0  0  0  0  0  0  0  0  0  0  0
    0.7145    2.0625    0.0000 C   0  0  0  0  0  0  0  0  0  0  0  0
    0.7145    1.2375    0.0000 C   0  0  0  0  0  0  0  0  0  0  0  0
    1.4289    0.8250    0.0000 C   0  0  0  0  0  0  0  0  0  0  0  0
    1.4289   -0.0000    0.0000 C   0  0  0  0  0  0  0  0  0  0  0  0
    0.7145   -0.4125    0.0000 C   0  0  0  0  0  0  0  0  0  0  0  0
    0.0000   -0.0000    0.0000 C   0  0  0  0  0  0  0  0  0  0  0  0
    0.0000    0.8250    0.0000 C   0  0  0  0  0  0  0  0  0  0  0  0
    0.7145   -1.2375    0.0000 C   0  0  0  0  0  0  0  0  0  0  0  0
    1.3819   -1.7224    0.0000 N   0  0  0  0  0  0  0  0  0  0  0  0
    1.1270   -2.5070    0.0000 C   0  0  0  0  0  0  0  0  0  0  0  0
    0.3020   -2.5070    0.0000 C   0  0  0  0  0  0  0  0  0  0  0  0
    0.0470   -1.7224    0.0000 N   0  0  0  0  0  0  0  0  0  0  0  0
   -0.1830   -3.1745    0.0000 C   0  0  0  0  0  0  0  0  0  0  0  0
    0.1526   -3.9282    0.0000 C   0  0  0  0  0  0  0  0  0  0  0  0
   -0.3323   -4.5956    0.0000 C   0  0  0  0  0  0  0  0  0  0  0  0
   -1.1528   -4.5094    0.0000 C   0  0  0  0  0  0  0  0  0  0  0  0
   -1.4884   -3.7557    0.0000 C   0  0  0  0  0  0  0  0  0  0  0  0
   -1.0034   -3.0882    0.0000 C   0  0  0  0  0  0  0  0  0  0  0  0
   -1.6377   -5.1768    0.0000 N   0  0  0  0  0  0  0  0  0  0  0  0
   -1.3022   -5.9305    0.0000 C   0  0  0  0  0  0  0  0  0  0  0  0
   -2.4582   -5.0906    0.0000 C   0  0  0  0  0  0  0  0  0  0  0  0
    1.6119   -3.1745    0.0000 C   0  0  0  0  0  0  0  0  0  0  0  0
    2.4324   -3.0882    0.0000 C   0  0  0  0  0  0  0  0  0  0  0  0
    2.9173   -3.7557    0.0000 C   0  0  0  0  0  0  0  0  0  0  0  0
    2.5817   -4.5094    0.0000 C   0  0  0  0  0  0  0  0  0  0  0  0
    1.7613   -4.5956    0.0000 C   0  0  0  0  0  0  0  0  0  0  0  0
    1.2763   -3.9282    0.0000 C   0  0  0  0  0  0  0  0  0  0  0  0
    3.0667   -5.1768    0.0000 N   0  0  0  0  0  0  0  0  0  0  0  0
    2.7311   -5.9305    0.0000 C   0  0  0  0  0  0  0  0  0  0  0  0
    3.8871   -5.0906    0.0000 C   0  0  0  0  0  0  0  0  0  0  0  0
  1  2  1  0  0  0  0
  2  3  1  0  0  0  0
  3  4  2  0  0  0  0
  3  5  1  0  0  0  0
  5  6  1  0  0  0  0
  6  7  1  0  0  0  0
  7  8  2  0  0  0  0
  7 12  1  0  0  0  0
  8  9  1  0  0  0  0
  9 10  2  0  0  0  0
 10 11  1  0  0  0  0
 10 13  1  0  0  0  0
 11 12  2  0  0  0  0
 13 14  1  0  0  0  0
 13 17  2  0  0  0  0
 14 15  1  0  0  0  0
 15 16  2  0  0  0  0
 15 27  1  0  0  0  0
 16 17  1  0  0  0  0
 16 18  1  0  0  0  0
 18 19  2  0  0  0  0
 18 23  1  0  0  0  0
 19 20  1  0  0  0  0
 20 21  2  0  0  0  0
 21 22  1  0  0  0  0
 21 24  1  0  0  0  0
 22 23  2  0  0  0  0
 24 25  1  0  0  0  0
 24 26  1  0  0  0  0
 27 28  2  0  0  0  0
 27 32  1  0  0  0  0
 28 29  1  0  0  0  0
 29 30  2  0  0  0  0
 30 31  1  0  0  0  0
 30 33  1  0  0  0  0
 31 32  2  0  0  0  0
 33 34  1  0  0  0  0
 33 35  1  0  0  0  0
M  END
$$$$

 OpenBabel12191814062D

 36 42  0  0  0  0  0  0  0  0999 V2000
    0.6099   -1.9013    0.0000 C   0  0  0  0  0  0  0  0  0  0  0  0
    0.5320   -1.0931    0.0000 O   0  0  0  0  0  0  0  0  0  0  0  0
    0.2010   -0.2531    0.0000 C   0  0  0  0  0  0  0  0  0  0  0  0
   -0.4836    0.2975    0.0000 O   0  0  0  0  0  0  0  0  0  0  0  0
    1.0862    0.2579    0.0000 N   0  0  0  0  0  0  0  0  0  0  0  0
    2.0147    0.1616    0.0000 C   0  0  3  0  0  0  0  0  0  0  0  0
    2.3243   -0.5235    0.0000 C   0  0  3  0  0  0  0  0  0  0  0  0
    2.9062   -0.2486    0.0000 C   0  0  3  0  0  0  0  0  0  0  0  0
    2.4137   -0.9894    0.0000 N   0  0  0  0  0  0  0  0  0  0  0  0
    1.5450   -0.1748    0.0000 C   0  0  3  0  0  0  0  0  0  0  0  0
    1.0412    0.7653    0.0000 C   0  0  3  0  0  0  0  0  0  0  0  0
    0.5306    0.0955    0.0000 C   0  0  3  0  0  0  0  0  0  0  0  0
    0.9112   -0.6811    0.0000 C   0  0  3  0  0  0  0  0  0  0  0  0
   -0.0912   -0.9582    0.0000 C   0  0  0  0  0  0  0  0  0  0  0  0
   -0.9637   -0.8046    0.0000 O   0  0  0  0  0  0  0  0  0  0  0  0
    1.5762   -1.1674    0.0000 C   0  0  3  0  0  0  0  0  0  0  0  0
    1.6089   -1.9917    0.0000 C   0  0  0  0  0  0  0  0  0  0  0  0
    2.3392   -2.3756    0.0000 C   0  0  0  0  0  0  0  0  0  0  0  0
    2.3719   -3.1999    0.0000 C   0  0  0  0  0  0  0  0  0  0  0  0
    1.6744   -3.6404    0.0000 C   0  0  0  0  0  0  0  0  0  0  0  0
    0.9441   -3.2566    0.0000 C   0  0  0  0  0  0  0  0  0  0  0  0
    0.9114   -2.4322    0.0000 C   0  0  0  0  0  0  0  0  0  0  0  0
    1.8887    1.1922    0.0000 C   0  0  3  0  0  0  0  0  0  0  0  0
    1.9951    2.0103    0.0000 C   0  0  0  0  0  0  0  0  0  0  0  0
    1.3398    2.5115    0.0000 C   0  0  0  0  0  0  0  0  0  0  0  0
    1.4462    3.3296    0.0000 C   0  0  0  0  0  0  0  0  0  0  0  0
    2.2079    3.6465    0.0000 C   0  0  0  0  0  0  0  0  0  0  0  0
    2.8632    3.1453    0.0000 C   0  0  0  0  0  0  0  0  0  0  0  0
    2.7568    2.3272    0.0000 C   0  0  0  0  0  0  0  0  0  0  0  0
    2.5395    0.6153    0.0000 C   0  0  3  0  0  0  0  0  0  0  0  0
    3.4279    0.6715    0.0000 C   0  0  0  0  0  0  0  0  0  0  0  0
    4.2654    0.4567    0.0000 O   0  0  0  0  0  0  0  0  0  0  0  0
    2.6425   -1.9063    0.0000 C   0  0  0  0  0  0  0  0  0  0  0  0
    2.0563   -2.6856    0.0000 O   0  0  0  0  0  0  0  0  0  0  0  0
    3.4618   -2.4381    0.0000 O   0  0  0  0  0  0  0  0  0  0  0  0
    4.2959   -2.2273    0.0000 C   0  0  0  0  0  0  0  0  0  0  0  0
  1  2  1  0  0  0  0
  2  3  1  0  0  0  0
  3  4  2  0  0  0  0
  3  5  1  0  0  0  0
  5  6  1  0  0  0  0
  5 12  1  0  0  0  0
  6  7  1  0  0  0  0
  6 30  1  0  0  0  0
  7  8  1  0  0  0  0
  7 16  1  0  0  0  0
  8  9  1  0  0  0  0
  8 30  1  0  0  0  0
  9 10  1  0  0  0  0
  9 33  1  0  0  0  0
 10 11  1  0  0  0  0
 10 13  1  0  0  0  0
 11 12  1  0  0  0  0
 11 23  1  0  0  0  0
 12 13  1  0  0  0  0
 13 14  1  0  0  0  0
 13 16  1  0  0  0  0
 14 15  1  0  0  0  0
 16 17  1  0  0  0  0
 17 18  2  0  0  0  0
 17 22  1  0  0  0  0
 18 19  1  0  0  0  0
 19 20  2  0  0  0  0
 20 21  1  0  0  0  0
 21 22  2  0  0  0  0
 23 24  1  0  0  0  0
 23 30  1  0  0  0  0
 24 25  2  0  0  0  0
 24 29  1  0  0  0  0
 25 26  1  0  0  0  0
 26 27  2  0  0  0  0
 27 28  1  0  0  0  0
 28 29  2  0  0  0  0
 30 31  1  0  0  0  0
 31 32  1  0  0  0  0
 33 34  2  0  0  0  0
 33 35  1  0  0  0  0
 35 36  1  0  0  0  0
M  END
$$$$

 OpenBabel12191814062D

 22 24  0  0  0  0  0  0  0  0999 V2000
   -1.8212   -2.1269    0.0000 C   0  0  0  0  0  0  0  0  0  0  0  0
   -1.4087   -1.4124    0.0000 O   0  0  0  0  0  0  0  0  0  0  0  0
   -0.5837   -1.4124    0.0000 C   0  0  0  0  0  0  0  0  0  0  0  0
   -0.1712   -2.1269    0.0000 O   0  0  0  0  0  0  0  0  0  0  0  0
   -0.1712   -0.6979    0.0000 N   0  0  0  0  0  0  0  0  0  0  0  0
    0.6538   -0.6979    0.0000 C   0  0  0  0  0  0  0  0  0  0  0  0
    1.1387   -0.0305    0.0000 N   0  0  0  0  0  0  0  0  0  0  0  0
    1.9233   -0.2854    0.0000 C   0  0  0  0  0  0  0  0  0  0  0  0
    2.6378    0.1271    0.0000 C   0  0  0  0  0  0  0  0  0  0  0  0
    3.3523   -0.2854    0.0000 C   0  0  0  0  0  0  0  0  0  0  0  0
    3.3523   -1.1104    0.0000 C   0  0  0  0  0  0  0  0  0  0  0  0
    2.6378   -1.5229    0.0000 C   0  0  0  0  0  0  0  0  0  0  0  0
    1.9233   -1.1104    0.0000 C   0  0  0  0  0  0  0  0  0  0  0  0
    1.1387   -1.3654    0.0000 N   0  0  0  0  0  0  0  0  0  0  0  0
    4.0668    0.1271    0.0000 C   0  0  0  0  0  0  0  0  0  0  0  0
    4.0668    0.9521    0.0000 O   0  0  0  0  0  0  0  0  0  0  0  0
    4.7812   -0.2854    0.0000 C   0  0  0  0  0  0  0  0  0  0  0  0
    5.4957    0.1271    0.0000 C   0  0  0  0  0  0  0  0  0  0  0  0
    6.2102   -0.2854    0.0000 C   0  0  0  0  0  0  0  0  0  0  0  0
    6.2102   -1.1104    0.0000 C   0  0  0  0  0  0  0  0  0  0  0  0
    5.4957   -1.5229    0.0000 C   0  0  0  0  0  0  0  0  0  0  0  0
    4.7812   -1.1104    0.0000 C   0  0  0  0  0  0  0  0  0  0  0  0
  1  2  1  0  0  0  0
  2  3  1  0  0  0  0
  3  4  2  0  0  0  0
  3  5  1  0  0  0  0
  5  6  1  0  0  0  0
  6  7  1  0  0  0  0
  6 14  2  0  0  0  0
  7  8  1  0  0  0  0
  8  9  2  0  0  0  0
  8 13  1  0  0  0  0
  9 10  1  0  0  0  0
 10 11  2  0  0  0  0
 10 15  1  0  0  0  0
 11 12  1  0  0  0  0
 12 13  2  0  0  0  0
 13 14  1  0  0  0  0
 15 16  2  0  0  0  0
 15 17  1  0  0  0  0
 17 18  2  0  0  0  0
 17 22  1  0  0  0  0
 18 19  1  0  0  0  0
 19 20  2  0  0  0  0
 20 21  1  0  0  0  0
 21 22  2  0  0  0  0
M  END
$$$$

 OpenBabel12191814062D

 22 24  0  0  0  0  0  0  0  0999 V2000
   -1.8212    0.7310    0.0000 C   0  0  0  0  0  0  0  0  0  0  0  0
   -1.4087    0.0165    0.0000 O   0  0  0  0  0  0  0  0  0  0  0  0
   -0.5837    0.0165    0.0000 C   0  0  0  0  0  0  0  0  0  0  0  0
   -0.1712    0.7310    0.0000 O   0  0  0  0  0  0  0  0  0  0  0  0
   -0.1712   -0.6979    0.0000 N   0  0  0  0  0  0  0  0  0  0  0  0
    0.6538   -0.6979    0.0000 C   0  0  0  0  0  0  0  0  0  0  0  0
    1.1387   -0.0305    0.0000 N   0  0  0  0  0  0  0  0  0  0  0  0
    1.9233   -0.2854    0.0000 C   0  0  0  0  0  0  0  0  0  0  0  0
    2.6378    0.1271    0.0000 C   0  0  0  0  0  0  0  0  0  0  0  0
    3.3523   -0.2854    0.0000 C   0  0  0  0  0  0  0  0  0  0  0  0
    3.3523   -1.1104    0.0000 C   0  0  0  0  0  0  0  0  0  0  0  0
    2.6378   -1.5229    0.0000 C   0  0  0  0  0  0  0  0  0  0  0  0
    1.9233   -1.1104    0.0000 C   0  0  0  0  0  0  0  0  0  0  0  0
    1.1387   -1.3654    0.0000 N   0  0  0  0  0  0  0  0  0  0  0  0
    4.0668   -1.5229    0.0000 C   0  0  0  0  0  0  0  0  0  0  0  0
    4.7812   -1.1104    0.0000 O   0  0  0  0  0  0  0  0  0  0  0  0
    4.0668   -2.3479    0.0000 C   0  0  0  0  0  0  0  0  0  0  0  0
    4.7812   -2.7604    0.0000 C   0  0  0  0  0  0  0  0  0  0  0  0
    4.7812   -3.5854    0.0000 C   0  0  0  0  0  0  0  0  0  0  0  0
    4.0668   -3.9979    0.0000 C   0  0  0  0  0  0  0  0  0  0  0  0
    3.3523   -3.5854    0.0000 C   0  0  0  0  0  0  0  0  0  0  0  0
    3.3523   -2.7604    0.0000 C   0  0  0  0  0  0  0  0  0  0  0  0
  1  2  1  0  0  0  0
  2  3  1  0  0  0  0
  3  4  2  0  0  0  0
  3  5  1  0  0  0  0
  5  6  1  0  0  0  0
  6  7  1  0  0  0  0
  6 14  2  0  0  0  0
  7  8  1  0  0  0  0
  8  9  2  0  0  0  0
  8 13  1  0  0  0  0
  9 10  1  0  0  0  0
 10 11  2  0  0  0  0
 11 12  1  0  0  0  0
 11 15  1  0  0  0  0
 12 13  2  0  0  0  0
 13 14  1  0  0  0  0
 15 16  2  0  0  0  0
 15 17  1  0  0  0  0
 17 18  2  0  0  0  0
 17 22  1  0  0  0  0
 18 19  1  0  0  0  0
 19 20  2  0  0  0  0
 20 21  1  0  0  0  0
 21 22  2  0  0  0  0
M  END
$$$$

 OpenBabel12191814062D

 29 30  0  0  0  0  0  0  0  0999 V2000
    2.1434   -2.6664    0.0000 C   0  0  0  0  0  0  0  0  0  0  0  0
    1.7309   -1.9520    0.0000 O   0  0  0  0  0  0  0  0  0  0  0  0
    0.9059   -1.9520    0.0000 C   0  0  3  0  0  0  0  0  0  0  0  0
    0.4934   -2.6664    0.0000 C   0  0  0  0  0  0  0  0  0  0  0  0
    0.9059   -3.3809    0.0000 C   0  0  0  0  0  0  0  0  0  0  0  0
    0.4934   -4.0954    0.0000 C   0  0  0  0  0  0  0  0  0  0  0  0
    0.9059   -4.8099    0.0000 C   0  0  0  0  0  0  0  0  0  0  0  0
    0.4934   -5.5243    0.0000 C   0  0  0  0  0  0  0  0  0  0  0  0
   -0.3316   -5.5243    0.0000 C   0  0  0  0  0  0  0  0  0  0  0  0
   -0.7441   -4.8099    0.0000 C   0  0  0  0  0  0  0  0  0  0  0  0
   -0.3316   -4.0954    0.0000 C   0  0  0  0  0  0  0  0  0  0  0  0
    0.4934   -1.2375    0.0000 C   0  0  0  0  0  0  0  0  0  0  0  0
   -0.3316   -1.2375    0.0000 C   0  0  0  0  0  0  0  0  0  0  0  0
   -0.7441   -0.5230    0.0000 C   0  0  0  0  0  0  0  0  0  0  0  0
   -0.3316    0.1914    0.0000 C   0  0  0  0  0  0  0  0  0  0  0  0
    0.4934    0.1914    0.0000 C   0  0  0  0  0  0  0  0  0  0  0  0
    0.9059   -0.5230    0.0000 C   0  0  0  0  0  0  0  0  0  0  0  0
    1.7309   -0.5230    0.0000 O   0  0  0  0  0  0  0  0  0  0  0  0
    2.1434   -1.2375    0.0000 C   0  0  0  0  0  0  0  0  0  0  0  0
    2.9684   -1.2375    0.0000 C   0  0  3  0  0  0  0  0  0  0  0  0
    3.3809   -0.5230    0.0000 O   0  0  0  0  0  0  0  0  0  0  0  0
    3.3809   -1.9520    0.0000 C   0  0  0  0  0  0  0  0  0  0  0  0
    4.2059   -1.9520    0.0000 N   0  0  0  0  0  0  0  0  0  0  0  0
    4.6184   -2.6664    0.0000 C   0  0  0  0  0  0  0  0  0  0  0  0
    5.4434   -2.6664    0.0000 C   0  0  0  0  0  0  0  0  0  0  0  0
    4.2059   -3.3809    0.0000 C   0  0  0  0  0  0  0  0  0  0  0  0
    4.6184   -1.2375    0.0000 C   0  0  0  0  0  0  0  0  0  0  0  0
    4.2059   -0.5230    0.0000 C   0  0  0  0  0  0  0  0  0  0  0  0
    5.4434   -1.2375    0.0000 C   0  0  0  0  0  0  0  0  0  0  0  0
  1  2  1  0  0  0  0
  2  3  1  0  0  0  0
  3  4  1  0  0  0  0
  3 12  1  0  0  0  0
  4  5  1  0  0  0  0
  5  6  1  0  0  0  0
  6  7  2  0  0  0  0
  6 11  1  0  0  0  0
  7  8  1  0  0  0  0
  8  9  2  0  0  0  0
  9 10  1  0  0  0  0
 10 11  2  0  0  0  0
 12 13  2  0  0  0  0
 12 17  1  0  0  0  0
 13 14  1  0  0  0  0
 14 15  2  0  0  0  0
 15 16  1  0  0  0  0
 16 17  2  0  0  0  0
 17 18  1  0  0  0  0
 18 19  1  0  0  0  0
 19 20  1  0  0  0  0
 20 21  1  0  0  0  0
 20 22  1  0  0  0  0
 22 23  1  0  0  0  0
 23 24  1  0  0  0  0
 23 27  1  0  0  0  0
 24 25  1  0  0  0  0
 24 26  1  0  0  0  0
 27 28  1  0  0  0  0
 27 29  1  0  0  0  0
M  END
$$$$

 OpenBabel12191814062D

 28 30  0  0  0  0  0  0  0  0999 V2000
    0.0000   -4.9500    0.0000 C   0  0  0  0  0  0  0  0  0  0  0  0
    0.0000   -4.1250    0.0000 O   0  0  0  0  0  0  0  0  0  0  0  0
   -0.7145   -3.7125    0.0000 C   0  0  3  0  0  0  0  0  0  0  0  0
   -1.4289   -4.1250    0.0000 C   0  0  0  0  0  0  0  0  0  0  0  0
   -1.4289   -4.9500    0.0000 C   0  0  0  0  0  0  0  0  0  0  0  0
   -2.1434   -5.3625    0.0000 C   0  0  0  0  0  0  0  0  0  0  0  0
   -2.1434   -6.1875    0.0000 C   0  0  0  0  0  0  0  0  0  0  0  0
   -2.8579   -6.6000    0.0000 C   0  0  0  0  0  0  0  0  0  0  0  0
   -3.5724   -6.1875    0.0000 C   0  0  0  0  0  0  0  0  0  0  0  0
   -3.5724   -5.3625    0.0000 C   0  0  0  0  0  0  0  0  0  0  0  0
   -2.8579   -4.9500    0.0000 C   0  0  0  0  0  0  0  0  0  0  0  0
   -0.7145   -2.8875    0.0000 C   0  0  0  0  0  0  0  0  0  0  0  0
   -1.4289   -2.4750    0.0000 C   0  0  0  0  0  0  0  0  0  0  0  0
   -1.4289   -1.6500    0.0000 C   0  0  0  0  0  0  0  0  0  0  0  0
   -0.7145   -1.2375    0.0000 C   0  0  0  0  0  0  0  0  0  0  0  0
    0.0000   -1.6500    0.0000 C   0  0  0  0  0  0  0  0  0  0  0  0
    0.0000   -2.4750    0.0000 C   0  0  0  0  0  0  0  0  0  0  0  0
    0.7145   -2.8875    0.0000 O   0  0  0  0  0  0  0  0  0  0  0  0
    1.4289   -2.4750    0.0000 C   0  0  0  0  0  0  0  0  0  0  0  0
    2.1434   -2.8875    0.0000 C   0  0  3  0  0  0  0  0  0  0  0  0
    2.1434   -3.7125    0.0000 O   0  0  0  0  0  0  0  0  0  0  0  0
    2.8579   -2.4750    0.0000 C   0  0  0  0  0  0  0  0  0  0  0  0
    3.5724   -2.8875    0.0000 N   0  0  0  0  0  0  0  0  0  0  0  0
    4.2868   -2.4750    0.0000 C   0  0  0  0  0  0  0  0  0  0  0  0
    5.0013   -2.8875    0.0000 C   0  0  0  0  0  0  0  0  0  0  0  0
    5.0013   -3.7125    0.0000 C   0  0  0  0  0  0  0  0  0  0  0  0
    4.2868   -4.1250    0.0000 C   0  0  0  0  0  0  0  0  0  0  0  0
    3.5724   -3.7125    0.0000 C   0  0  0  0  0  0  0  0  0  0  0  0
  1  2  1  0  0  0  0
  2  3  1  0  0  0  0
  3  4  1  0  0  0  0
  3 12  1  0  0  0  0
  4  5  1  0  0  0  0
  5  6  1  0  0  0  0
  6  7  2  0  0  0  0
  6 11  1  0  0  0  0
  7  8  1  0  0  0  0
  8  9  2  0  0  0  0
  9 10  1  0  0  0  0
 10 11  2  0  0  0  0
 12 13  2  0  0  0  0
 12 17  1  0  0  0  0
 13 14  1  0  0  0  0
 14 15  2  0  0  0  0
 15 16  1  0  0  0  0
 16 17  2  0  0  0  0
 17 18  1  0  0  0  0
 18 19  1  0  0  0  0
 19 20  1  0  0  0  0
 20 21  1  0  0  0  0
 20 22  1  0  0  0  0
 22 23  1  0  0  0  0
 23 24  1  0  0  0  0
 23 28  1  0  0  0  0
 24 25  1  0  0  0  0
 25 26  1  0  0  0  0
 26 27  1  0  0  0  0
 27 28  1  0  0  0  0
M  END
$$$$

 OpenBabel12191814062D

 35 38  0  0  0  0  0  0  0  0999 V2000
    7.1447   -4.1250    0.0000 C   0  0  0  0  0  0  0  0  0  0  0  0
    6.4302   -3.7125    0.0000 O   0  0  0  0  0  0  0  0  0  0  0  0
    5.7158   -4.1250    0.0000 C   0  0  3  0  0  0  0  0  0  0  0  0
    5.7158   -4.9500    0.0000 C   0  0  0  0  0  0  0  0  0  0  0  0
    6.4302   -5.3625    0.0000 C   0  0  0  0  0  0  0  0  0  0  0  0
    6.4302   -6.1875    0.0000 C   0  0  0  0  0  0  0  0  0  0  0  0
    7.1447   -6.6000    0.0000 C   0  0  0  0  0  0  0  0  0  0  0  0
    7.1447   -7.4250    0.0000 C   0  0  0  0  0  0  0  0  0  0  0  0
    6.4302   -7.8375    0.0000 C   0  0  0  0  0  0  0  0  0  0  0  0
    5.7158   -7.4250    0.0000 C   0  0  0  0  0  0  0  0  0  0  0  0
    5.7158   -6.6000    0.0000 C   0  0  0  0  0  0  0  0  0  0  0  0
    5.0013   -3.7125    0.0000 C   0  0  0  0  0  0  0  0  0  0  0  0
    4.2868   -4.1250    0.0000 C   0  0  0  0  0  0  0  0  0  0  0  0
    3.5724   -3.7125    0.0000 C   0  0  0  0  0  0  0  0  0  0  0  0
    3.5724   -2.8875    0.0000 C   0  0  0  0  0  0  0  0  0  0  0  0
    4.2868   -2.4750    0.0000 C   0  0  0  0  0  0  0  0  0  0  0  0
    5.0013   -2.8875    0.0000 C   0  0  0  0  0  0  0  0  0  0  0  0
    5.7158   -2.4750    0.0000 O   0  0  0  0  0  0  0  0  0  0  0  0
    5.7158   -1.6500    0.0000 C   0  0  0  0  0  0  0  0  0  0  0  0
    6.4302   -1.2375    0.0000 C   0  0  3  0  0  0  0  0  0  0  0  0
    7.1447   -1.6500    0.0000 O   0  0  0  0  0  0  0  0  0  0  0  0
    6.4302   -0.4125    0.0000 C   0  0  0  0  0  0  0  0  0  0  0  0
    7.1447    0.0000    0.0000 N   0  0  0  0  0  0  0  0  0  0  0  0
    7.1447    0.8250    0.0000 C   0  0  0  0  0  0  0  0  0  0  0  0
    7.8592    1.2375    0.0000 C   0  0  0  0  0  0  0  0  0  0  0  0
    8.5737    0.8250    0.0000 N   0  0  0  0  0  0  0  0  0  0  0  0
    8.5737    0.0000    0.0000 C   0  0  0  0  0  0  0  0  0  0  0  0
    7.8592   -0.4125    0.0000 C   0  0  0  0  0  0  0  0  0  0  0  0
    9.2881    1.2375    0.0000 C   0  0  0  0  0  0  0  0  0  0  0  0
    9.2881    2.0625    0.0000 C   0  0  0  0  0  0  0  0  0  0  0  0
   10.0026    2.4750    0.0000 C   0  0  0  0  0  0  0  0  0  0  0  0
   10.7171    2.0625    0.0000 C   0  0  0  0  0  0  0  0  0  0  0  0
   11.4315    2.4750    0.0000 F   0  0  0  0  0  0  0  0  0  0  0  0
   10.7171    1.2375    0.0000 C   0  0  0  0  0  0  0  0  0  0  0  0
   10.0026    0.8250    0.0000 C   0  0  0  0  0  0  0  0  0  0  0  0
  1  2  1  0  0  0  0
  2  3  1  0  0  0  0
  3  4  1  0  0  0  0
  3 12  1  0  0  0  0
  4  5  1  0  0  0  0
  5  6  1  0  0  0  0
  6  7  2  0  0  0  0
  6 11  1  0  0  0  0
  7  8  1  0  0  0  0
  8  9  2  0  0  0  0
  9 10  1  0  0  0  0
 10 11  2  0  0  0  0
 12 13  2  0  0  0  0
 12 17  1  0  0  0  0
 13 14  1  0  0  0  0
 14 15  2  0  0  0  0
 15 16  1  0  0  0  0
 16 17  2  0  0  0  0
 17 18  1  0  0  0  0
 18 19  1  0  0  0  0
 19 20  1  0  0  0  0
 20 21  1  0  0  0  0
 20 22  1  0  0  0  0
 22 23  1  0  0  0  0
 23 24  1  0  0  0  0
 23 28  1  0  0  0  0
 24 25  1  0  0  0  0
 25 26  1  0  0  0  0
 26 27  1  0  0  0  0
 26 29  1  0  0  0  0
 27 28  1  0  0  0  0
 29 30  2  0  0  0  0
 29 35  1  0  0  0  0
 30 31  1  0  0  0  0
 31 32  2  0  0  0  0
 32 33  1  0  0  0  0
 32 34  1  0  0  0  0
 34 35  2  0  0  0  0
M  END
$$$$

 OpenBabel12191814062D

 28 30  0  0  0  0  0  0  0  0999 V2000
    0.0000   -4.9500    0.0000 C   0  0  0  0  0  0  0  0  0  0  0  0
    0.0000   -4.1250    0.0000 O   0  0  0  0  0  0  0  0  0  0  0  0
   -0.7145   -3.7125    0.0000 C   0  0  3  0  0  0  0  0  0  0  0  0
   -1.4289   -4.1250    0.0000 C   0  0  0  0  0  0  0  0  0  0  0  0
   -1.4289   -4.9500    0.0000 C   0  0  0  0  0  0  0  0  0  0  0  0
   -2.1434   -5.3625    0.0000 C   0  0  0  0  0  0  0  0  0  0  0  0
   -2.1434   -6.1875    0.0000 C   0  0  0  0  0  0  0  0  0  0  0  0
   -2.8579   -6.6000    0.0000 C   0  0  0  0  0  0  0  0  0  0  0  0
   -3.5724   -6.1875    0.0000 C   0  0  0  0  0  0  0  0  0  0  0  0
   -3.5724   -5.3625    0.0000 C   0  0  0  0  0  0  0  0  0  0  0  0
   -2.8579   -4.9500    0.0000 C   0  0  0  0  0  0  0  0  0  0  0  0
   -0.7145   -2.8875    0.0000 C   0  0  0  0  0  0  0  0  0  0  0  0
   -1.4289   -2.4750    0.0000 C   0  0  0  0  0  0  0  0  0  0  0  0
   -1.4289   -1.6500    0.0000 C   0  0  0  0  0  0  0  0  0  0  0  0
   -0.7145   -1.2375    0.0000 C   0  0  0  0  0  0  0  0  0  0  0  0
    0.0000   -1.6500    0.0000 C   0  0  0  0  0  0  0  0  0  0  0  0
    0.0000   -2.4750    0.0000 C   0  0  0  0  0  0  0  0  0  0  0  0
    0.7145   -2.8875    0.0000 O   0  0  0  0  0  0  0  0  0  0  0  0
    1.4289   -2.4750    0.0000 C   0  0  0  0  0  0  0  0  0  0  0  0
    2.1434   -2.8875    0.0000 C   0  0  3  0  0  0  0  0  0  0  0  0
    2.1434   -3.7125    0.0000 O   0  0  0  0  0  0  0  0  0  0  0  0
    2.8579   -2.4750    0.0000 C   0  0  0  0  0  0  0  0  0  0  0  0
    3.5724   -2.8875    0.0000 N   0  0  0  0  0  0  0  0  0  0  0  0
    4.2868   -2.4750    0.0000 C   0  0  0  0  0  0  0  0  0  0  0  0
    5.0013   -2.8875    0.0000 C   0  0  0  0  0  0  0  0  0  0  0  0
    5.0013   -3.7125    0.0000 O   0  0  0  0  0  0  0  0  0  0  0  0
    4.2868   -4.1250    0.0000 C   0  0  0  0  0  0  0  0  0  0  0  0
    3.5724   -3.7125    0.0000 C   0  0  0  0  0  0  0  0  0  0  0  0
  1  2  1  0  0  0  0
  2  3  1  0  0  0  0
  3  4  1  0  0  0  0
  3 12  1  0  0  0  0
  4  5  1  0  0  0  0
  5  6  1  0  0  0  0
  6  7  2  0  0  0  0
  6 11  1  0  0  0  0
  7  8  1  0  0  0  0
  8  9  2  0  0  0  0
  9 10  1  0  0  0  0
 10 11  2  0  0  0  0
 12 13  2  0  0  0  0
 12 17  1  0  0  0  0
 13 14  1  0  0  0  0
 14 15  2  0  0  0  0
 15 16  1  0  0  0  0
 16 17  2  0  0  0  0
 17 18  1  0  0  0  0
 18 19  1  0  0  0  0
 19 20  1  0  0  0  0
 20 21  1  0  0  0  0
 20 22  1  0  0  0  0
 22 23  1  0  0  0  0
 23 24  1  0  0  0  0
 23 28  1  0  0  0  0
 24 25  1  0  0  0  0
 25 26  1  0  0  0  0
 26 27  1  0  0  0  0
 27 28  1  0  0  0  0
M  END
$$$$

 OpenBabel12191814062D

 38 41  0  0  0  0  0  0  0  0999 V2000
   -5.0013   -3.7125    0.0000 C   0  0  0  0  0  0  0  0  0  0  0  0
   -5.0013   -2.8875    0.0000 O   0  0  0  0  0  0  0  0  0  0  0  0
   -5.7158   -2.4750    0.0000 C   0  0  3  0  0  0  0  0  0  0  0  0
   -6.4302   -2.8875    0.0000 C   0  0  0  0  0  0  0  0  0  0  0  0
   -7.1447   -2.4750    0.0000 C   0  0  0  0  0  0  0  0  0  0  0  0
   -7.8592   -2.8875    0.0000 C   0  0  0  0  0  0  0  0  0  0  0  0
   -7.8592   -3.7125    0.0000 C   0  0  0  0  0  0  0  0  0  0  0  0
   -8.5737   -4.1250    0.0000 C   0  0  0  0  0  0  0  0  0  0  0  0
   -9.2881   -3.7125    0.0000 C   0  0  0  0  0  0  0  0  0  0  0  0
   -9.2881   -2.8875    0.0000 C   0  0  0  0  0  0  0  0  0  0  0  0
   -8.5737   -2.4750    0.0000 C   0  0  0  0  0  0  0  0  0  0  0  0
   -5.7158   -1.6500    0.0000 C   0  0  0  0  0  0  0  0  0  0  0  0
   -6.4302   -1.2375    0.0000 C   0  0  0  0  0  0  0  0  0  0  0  0
   -6.4302   -0.4125    0.0000 C   0  0  0  0  0  0  0  0  0  0  0  0
   -5.7158    0.0000    0.0000 C   0  0  0  0  0  0  0  0  0  0  0  0
   -5.0013   -0.4125    0.0000 C   0  0  0  0  0  0  0  0  0  0  0  0
   -5.0013   -1.2375    0.0000 C   0  0  0  0  0  0  0  0  0  0  0  0
   -4.2868   -1.6500    0.0000 O   0  0  0  0  0  0  0  0  0  0  0  0
   -3.5724   -1.2375    0.0000 C   0  0  0  0  0  0  0  0  0  0  0  0
   -2.8579   -1.6500    0.0000 C   0  0  3  0  0  0  0  0  0  0  0  0
   -2.8579   -2.4750    0.0000 O   0  0  0  0  0  0  0  0  0  0  0  0
   -2.1434   -1.2375    0.0000 C   0  0  0  0  0  0  0  0  0  0  0  0
   -1.4289   -1.6500    0.0000 N   0  0  0  0  0  0  0  0  0  0  0  0
   -0.7145   -1.2375    0.0000 C   0  0  0  0  0  0  0  0  0  0  0  0
    0.0000   -1.6500    0.0000 C   0  0  0  0  0  0  0  0  0  0  0  0
    0.7145   -1.2375    0.0000 C   0  0  0  0  0  0  0  0  0  0  0  0
    1.4289   -1.6500    0.0000 C   0  0  0  0  0  0  0  0  0  0  0  0
    2.1434   -1.2375    0.0000 C   0  0  0  0  0  0  0  0  0  0  0  0
    2.8579   -1.6500    0.0000 C   0  0  0  0  0  0  0  0  0  0  0  0
    2.8579   -2.4750    0.0000 C   0  0  0  0  0  0  0  0  0  0  0  0
    2.1434   -2.8875    0.0000 C   0  0  0  0  0  0  0  0  0  0  0  0
    1.4289   -2.4750    0.0000 C   0  0  0  0  0  0  0  0  0  0  0  0
    0.7145   -0.4125    0.0000 C   0  0  0  0  0  0  0  0  0  0  0  0
    0.0000   -0.0000    0.0000 C   0  0  0  0  0  0  0  0  0  0  0  0
    0.0000    0.8250    0.0000 C   0  0  0  0  0  0  0  0  0  0  0  0
    0.7145    1.2375    0.0000 C   0  0  0  0  0  0  0  0  0  0  0  0
    1.4289    0.8250    0.0000 C   0  0  0  0  0  0  0  0  0  0  0  0
    1.4289   -0.0000    0.0000 C   0  0  0  0  0  0  0  0  0  0  0  0
  1  2  1  0  0  0  0
  2  3  1  0  0  0  0
  3  4  1  0  0  0  0
  3 12  1  0  0  0  0
  4  5  1  0  0  0  0
  5  6  1  0  0  0  0
  6  7  2  0  0  0  0
  6 11  1  0  0  0  0
  7  8  1  0  0  0  0
  8  9  2  0  0  0  0
  9 10  1  0  0  0  0
 10 11  2  0  0  0  0
 12 13  2  0  0  0  0
 12 17  1  0  0  0  0
 13 14  1  0  0  0  0
 14 15  2  0  0  0  0
 15 16  1  0  0  0  0
 16 17  2  0  0  0  0
 17 18  1  0  0  0  0
 18 19  1  0  0  0  0
 19 20  1  0  0  0  0
 20 21  1  0  0  0  0
 20 22  1  0  0  0  0
 22 23  1  0  0  0  0
 23 24  1  0  0  0  0
 24 25  1  0  0  0  0
 25 26  1  0  0  0  0
 26 27  1  0  0  0  0
 26 33  1  0  0  0  0
 27 28  2  0  0  0  0
 27 32  1  0  0  0  0
 28 29  1  0  0  0  0
 29 30  2  0  0  0  0
 30 31  1  0  0  0  0
 31 32  2  0  0  0  0
 33 34  2  0  0  0  0
 33 38  1  0  0  0  0
 34 35  1  0  0  0  0
 35 36  2  0  0  0  0
 36 37  1  0  0  0  0
 37 38  2  0  0  0  0
M  END
$$$$

 OpenBabel12191814062D

 39 42  0  0  0  0  0  0  0  0999 V2000
   -4.7482   -1.0914    0.0000 C   0  0  0  0  0  0  0  0  0  0  0  0
   -4.2081   -0.4677    0.0000 O   0  0  0  0  0  0  0  0  0  0  0  0
   -4.4782    0.3118    0.0000 C   0  0  3  0  0  0  0  0  0  0  0  0
   -5.2883    0.4677    0.0000 C   0  0  0  0  0  0  0  0  0  0  0  0
   -5.8284   -0.1559    0.0000 C   0  0  0  0  0  0  0  0  0  0  0  0
   -6.6385    0.0000    0.0000 C   0  0  0  0  0  0  0  0  0  0  0  0
   -7.1786   -0.6236    0.0000 C   0  0  0  0  0  0  0  0  0  0  0  0
   -7.9887   -0.4677    0.0000 C   0  0  0  0  0  0  0  0  0  0  0  0
   -8.2588    0.3118    0.0000 C   0  0  0  0  0  0  0  0  0  0  0  0
   -7.7187    0.9355    0.0000 C   0  0  0  0  0  0  0  0  0  0  0  0
   -6.9086    0.7796    0.0000 C   0  0  0  0  0  0  0  0  0  0  0  0
   -3.9381    0.9355    0.0000 C   0  0  0  0  0  0  0  0  0  0  0  0
   -4.2081    1.7150    0.0000 C   0  0  0  0  0  0  0  0  0  0  0  0
   -3.6680    2.3387    0.0000 C   0  0  0  0  0  0  0  0  0  0  0  0
   -2.8579    2.1827    0.0000 C   0  0  0  0  0  0  0  0  0  0  0  0
   -2.5878    1.4032    0.0000 C   0  0  0  0  0  0  0  0  0  0  0  0
   -3.1279    0.7796    0.0000 C   0  0  0  0  0  0  0  0  0  0  0  0
   -2.8579   -0.0000    0.0000 O   0  0  0  0  0  0  0  0  0  0  0  0
   -3.3980   -0.6236    0.0000 C   0  0  0  0  0  0  0  0  0  0  0  0
   -3.1279   -1.4032    0.0000 C   0  0  3  0  0  0  0  0  0  0  0  0
   -3.6680   -2.0268    0.0000 O   0  0  0  0  0  0  0  0  0  0  0  0
   -2.3178   -1.5591    0.0000 C   0  0  0  0  0  0  0  0  0  0  0  0
   -1.7777   -0.9355    0.0000 N   0  0  0  0  0  0  0  0  0  0  0  0
   -0.9676   -1.0914    0.0000 C   0  0  0  0  0  0  0  0  0  0  0  0
   -0.4275   -0.4677    0.0000 C   0  0  0  0  0  0  0  0  0  0  0  0
    0.3827   -0.6236    0.0000 C   0  0  0  0  0  0  0  0  0  0  0  0
    0.9227   -0.0000    0.0000 C   0  0  0  0  0  0  0  0  0  0  0  0
    1.7329   -0.1559    0.0000 C   0  0  0  0  0  0  0  0  0  0  0  0
    2.2730    0.4677    0.0000 C   0  0  0  0  0  0  0  0  0  0  0  0
    3.0831    0.3118    0.0000 C   0  0  0  0  0  0  0  0  0  0  0  0
    3.3531   -0.4677    0.0000 C   0  0  0  0  0  0  0  0  0  0  0  0
    2.8131   -1.0914    0.0000 C   0  0  0  0  0  0  0  0  0  0  0  0
    2.0029   -0.9355    0.0000 C   0  0  0  0  0  0  0  0  0  0  0  0
    0.6527    0.7796    0.0000 C   0  0  0  0  0  0  0  0  0  0  0  0
   -0.1574    0.9355    0.0000 C   0  0  0  0  0  0  0  0  0  0  0  0
   -0.4275    1.7150    0.0000 C   0  0  0  0  0  0  0  0  0  0  0  0
    0.1126    2.3387    0.0000 C   0  0  0  0  0  0  0  0  0  0  0  0
    0.9227    2.1827    0.0000 C   0  0  0  0  0  0  0  0  0  0  0  0
    1.1928    1.4032    0.0000 C   0  0  0  0  0  0  0  0  0  0  0  0
  1  2  1  0  0  0  0
  2  3  1  0  0  0  0
  3  4  1  0  0  0  0
  3 12  1  0  0  0  0
  4  5  1  0  0  0  0
  5  6  1  0  0  0  0
  6  7  2  0  0  0  0
  6 11  1  0  0  0  0
  7  8  1  0  0  0  0
  8  9  2  0  0  0  0
  9 10  1  0  0  0  0
 10 11  2  0  0  0  0
 12 13  2  0  0  0  0
 12 17  1  0  0  0  0
 13 14  1  0  0  0  0
 14 15  2  0  0  0  0
 15 16  1  0  0  0  0
 16 17  2  0  0  0  0
 17 18  1  0  0  0  0
 18 19  1  0  0  0  0
 19 20  1  0  0  0  0
 20 21  1  0  0  0  0
 20 22  1  0  0  0  0
 22 23  1  0  0  0  0
 23 24  1  0  0  0  0
 24 25  1  0  0  0  0
 25 26  1  0  0  0  0
 26 27  1  0  0  0  0
 27 28  1  0  0  0  0
 27 34  1  0  0  0  0
 28 29  2  0  0  0  0
 28 33  1  0  0  0  0
 29 30  1  0  0  0  0
 30 31  2  0  0  0  0
 31 32  1  0  0  0  0
 32 33  2  0  0  0  0
 34 35  2  0  0  0  0
 34 39  1  0  0  0  0
 35 36  1  0  0  0  0
 36 37  2  0  0  0  0
 37 38  1  0  0  0  0
 38 39  2  0  0  0  0
M  END
$$$$

 OpenBabel12191814062D

 28 30  0  0  0  0  0  0  0  0999 V2000
   -3.5724   -4.5375    0.0000 C   0  0  0  0  0  0  0  0  0  0  0  0
   -2.8579   -4.1250    0.0000 O   0  0  0  0  0  0  0  0  0  0  0  0
   -2.8579   -3.3000    0.0000 C   0  0  3  0  0  0  0  0  0  0  0  0
   -2.1434   -2.8875    0.0000 C   0  0  0  0  0  0  0  0  0  0  0  0
   -1.4289   -3.3000    0.0000 N   0  0  0  0  0  0  0  0  0  0  0  0
   -0.7145   -2.8875    0.0000 C   0  0  0  0  0  0  0  0  0  0  0  0
    0.0000   -3.3000    0.0000 C   0  0  0  0  0  0  0  0  0  0  0  0
    0.0000   -4.1250    0.0000 N   0  0  0  0  0  0  0  0  0  0  0  0
    0.7145   -4.5375    0.0000 C   0  0  0  0  0  0  0  0  0  0  0  0
    0.7145   -5.3625    0.0000 C   0  0  3  0  0  0  0  0  0  0  0  0
    0.0000   -5.7750    0.0000 O   0  0  0  0  0  0  0  0  0  0  0  0
    1.4289   -5.7750    0.0000 C   0  0  3  0  0  0  0  0  0  0  0  0
    2.1434   -5.3625    0.0000 O   0  0  0  0  0  0  0  0  0  0  0  0
    2.8579   -5.7750    0.0000 C   0  0  0  0  0  0  0  0  0  0  0  0
    1.4289   -6.6000    0.0000 C   0  0  0  0  0  0  0  0  0  0  0  0
    2.1434   -7.0125    0.0000 C   0  0  0  0  0  0  0  0  0  0  0  0
    2.1434   -7.8375    0.0000 C   0  0  0  0  0  0  0  0  0  0  0  0
    1.4289   -8.2500    0.0000 C   0  0  0  0  0  0  0  0  0  0  0  0
    0.7145   -7.8375    0.0000 C   0  0  0  0  0  0  0  0  0  0  0  0
    0.7145   -7.0125    0.0000 C   0  0  0  0  0  0  0  0  0  0  0  0
   -0.7145   -4.5375    0.0000 C   0  0  0  0  0  0  0  0  0  0  0  0
   -1.4289   -4.1250    0.0000 C   0  0  0  0  0  0  0  0  0  0  0  0
   -3.5724   -2.8875    0.0000 C   0  0  0  0  0  0  0  0  0  0  0  0
   -4.2868   -3.3000    0.0000 C   0  0  0  0  0  0  0  0  0  0  0  0
   -5.0013   -2.8875    0.0000 C   0  0  0  0  0  0  0  0  0  0  0  0
   -5.0013   -2.0625    0.0000 C   0  0  0  0  0  0  0  0  0  0  0  0
   -4.2868   -1.6500    0.0000 C   0  0  0  0  0  0  0  0  0  0  0  0
   -3.5724   -2.0625    0.0000 C   0  0  0  0  0  0  0  0  0  0  0  0
  1  2  1  0  0  0  0
  2  3  1  0  0  0  0
  3  4  1  0  0  0  0
  3 23  1  0  0  0  0
  4  5  1  0  0  0  0
  5  6  1  0  0  0  0
  5 22  1  0  0  0  0
  6  7  1  0  0  0  0
  7  8  1  0  0  0  0
  8  9  1  0  0  0  0
  8 21  1  0  0  0  0
  9 10  1  0  0  0  0
 10 11  1  0  0  0  0
 10 12  1  0  0  0  0
 12 13  1  0  0  0  0
 12 15  1  0  0  0  0
 13 14  1  0  0  0  0
 15 16  2  0  0  0  0
 15 20  1  0  0  0  0
 16 17  1  0  0  0  0
 17 18  2  0  0  0  0
 18 19  1  0  0  0  0
 19 20  2  0  0  0  0
 21 22  1  0  0  0  0
 23 24  2  0  0  0  0
 23 28  1  0  0  0  0
 24 25  1  0  0  0  0
 25 26  2  0  0  0  0
 26 27  1  0  0  0  0
 27 28  2  0  0  0  0
M  END
$$$$

 OpenBabel12191814062D

 26 28  0  0  0  0  0  0  0  0999 V2000
   -0.7145   -1.2375    0.0000 C   0  0  0  0  0  0  0  0  0  0  0  0
    0.0000   -1.6500    0.0000 O   0  0  0  0  0  0  0  0  0  0  0  0
    0.7145   -1.2375    0.0000 C   0  0  3  0  0  0  0  0  0  0  0  0
    1.4289   -1.6500    0.0000 C   0  0  0  0  0  0  0  0  0  0  0  0
    1.4289   -2.4750    0.0000 N   0  0  0  0  0  0  0  0  0  0  0  0
    2.1434   -2.8875    0.0000 C   0  0  0  0  0  0  0  0  0  0  0  0
    2.1434   -3.7125    0.0000 C   0  0  0  0  0  0  0  0  0  0  0  0
    1.4289   -4.1250    0.0000 N   0  0  0  0  0  0  0  0  0  0  0  0
    1.4289   -4.9500    0.0000 C   0  0  0  0  0  0  0  0  0  0  0  0
    0.7145   -5.3625    0.0000 C   0  0  0  0  0  0  0  0  0  0  0  0
    0.7145   -6.1875    0.0000 C   0  0  3  0  0  0  0  0  0  0  0  0
    1.4289   -6.6000    0.0000 O   0  0  0  0  0  0  0  0  0  0  0  0
   -0.0000   -6.6000    0.0000 C   0  0  0  0  0  0  0  0  0  0  0  0
   -0.0000   -7.4250    0.0000 C   0  0  0  0  0  0  0  0  0  0  0  0
   -0.7145   -7.8375    0.0000 C   0  0  0  0  0  0  0  0  0  0  0  0
   -1.4289   -7.4250    0.0000 C   0  0  0  0  0  0  0  0  0  0  0  0
   -1.4289   -6.6000    0.0000 C   0  0  0  0  0  0  0  0  0  0  0  0
   -0.7145   -6.1875    0.0000 C   0  0  0  0  0  0  0  0  0  0  0  0
    0.7145   -3.7125    0.0000 C   0  0  0  0  0  0  0  0  0  0  0  0
    0.7145   -2.8875    0.0000 C   0  0  0  0  0  0  0  0  0  0  0  0
    0.7145   -0.4125    0.0000 C   0  0  0  0  0  0  0  0  0  0  0  0
    0.0000    0.0000    0.0000 C   0  0  0  0  0  0  0  0  0  0  0  0
    0.0000    0.8250    0.0000 C   0  0  0  0  0  0  0  0  0  0  0  0
    0.7145    1.2375    0.0000 C   0  0  0  0  0  0  0  0  0  0  0  0
    1.4289    0.8250    0.0000 C   0  0  0  0  0  0  0  0  0  0  0  0
    1.4289    0.0000    0.0000 C   0  0  0  0  0  0  0  0  0  0  0  0
  1  2  1  0  0  0  0
  2  3  1  0  0  0  0
  3  4  1  0  0  0  0
  3 21  1  0  0  0  0
  4  5  1  0  0  0  0
  5  6  1  0  0  0  0
  5 20  1  0  0  0  0
  6  7  1  0  0  0  0
  7  8  1  0  0  0  0
  8  9  1  0  0  0  0
  8 19  1  0  0  0  0
  9 10  1  0  0  0  0
 10 11  1  0  0  0  0
 11 12  1  0  0  0  0
 11 13  1  0  0  0  0
 13 14  2  0  0  0  0
 13 18  1  0  0  0  0
 14 15  1  0  0  0  0
 15 16  2  0  0  0  0
 16 17  1  0  0  0  0
 17 18  2  0  0  0  0
 19 20  1  0  0  0  0
 21 22  2  0  0  0  0
 21 26  1  0  0  0  0
 22 23  1  0  0  0  0
 23 24  2  0  0  0  0
 24 25  1  0  0  0  0
 25 26  2  0  0  0  0
M  END
$$$$

 OpenBabel12191814062D

 34 37  0  0  0  0  0  0  0  0999 V2000
   -0.7145    4.5375    0.0000 C   0  0  0  0  0  0  0  0  0  0  0  0
   -0.7145    3.7125    0.0000 O   0  0  0  0  0  0  0  0  0  0  0  0
    0.0000    3.3000    0.0000 C   0  0  0  0  0  0  0  0  0  0  0  0
    0.0000    2.4750    0.0000 C   0  0  0  0  0  0  0  0  0  0  0  0
    0.7145    2.0625    0.0000 C   0  0  0  0  0  0  0  0  0  0  0  0
    0.7145    1.2375    0.0000 C   0  0  0  0  0  0  0  0  0  0  0  0
    1.4289    0.8250    0.0000 C   0  0  0  0  0  0  0  0  0  0  0  0
    1.4289   -0.0000    0.0000 C   0  0  0  0  0  0  0  0  0  0  0  0
    0.7145   -0.4125    0.0000 C   0  0  0  0  0  0  0  0  0  0  0  0
    0.0000   -0.0000    0.0000 C   0  0  0  0  0  0  0  0  0  0  0  0
    0.0000    0.8250    0.0000 C   0  0  0  0  0  0  0  0  0  0  0  0
    0.7145   -1.2375    0.0000 C   0  0  0  0  0  0  0  0  0  0  0  0
    1.3819   -1.7224    0.0000 N   0  0  0  0  0  0  0  0  0  0  0  0
    1.1270   -2.5070    0.0000 C   0  0  0  0  0  0  0  0  0  0  0  0
    0.3020   -2.5070    0.0000 C   0  0  0  0  0  0  0  0  0  0  0  0
    0.0470   -1.7224    0.0000 N   0  0  0  0  0  0  0  0  0  0  0  0
   -0.1830   -3.1745    0.0000 C   0  0  0  0  0  0  0  0  0  0  0  0
    0.1526   -3.9282    0.0000 C   0  0  0  0  0  0  0  0  0  0  0  0
   -0.3323   -4.5956    0.0000 C   0  0  0  0  0  0  0  0  0  0  0  0
   -1.1528   -4.5094    0.0000 C   0  0  0  0  0  0  0  0  0  0  0  0
   -1.4884   -3.7557    0.0000 C   0  0  0  0  0  0  0  0  0  0  0  0
   -1.0034   -3.0882    0.0000 C   0  0  0  0  0  0  0  0  0  0  0  0
   -1.6377   -5.1768    0.0000 N   0  0  0  0  0  0  0  0  0  0  0  0
   -1.3022   -5.9305    0.0000 C   0  0  0  0  0  0  0  0  0  0  0  0
   -2.4582   -5.0906    0.0000 C   0  0  0  0  0  0  0  0  0  0  0  0
    1.6119   -3.1745    0.0000 C   0  0  0  0  0  0  0  0  0  0  0  0
    2.4324   -3.0882    0.0000 C   0  0  0  0  0  0  0  0  0  0  0  0
    2.9173   -3.7557    0.0000 C   0  0  0  0  0  0  0  0  0  0  0  0
    2.5817   -4.5094    0.0000 C   0  0  0  0  0  0  0  0  0  0  0  0
    1.7613   -4.5956    0.0000 C   0  0  0  0  0  0  0  0  0  0  0  0
    1.2763   -3.9282    0.0000 C   0  0  0  0  0  0  0  0  0  0  0  0
    3.0667   -5.1768    0.0000 N   0  0  0  0  0  0  0  0  0  0  0  0
    2.7311   -5.9305    0.0000 C   0  0  0  0  0  0  0  0  0  0  0  0
    3.8871   -5.0906    0.0000 C   0  0  0  0  0  0  0  0  0  0  0  0
  1  2  1  0  0  0  0
  2  3  1  0  0  0  0
  3  4  1  0  0  0  0
  4  5  2  0  0  0  0
  5  6  1  0  0  0  0
  6  7  2  0  0  0  0
  6 11  1  0  0  0  0
  7  8  1  0  0  0  0
  8  9  2  0  0  0  0
  9 10  1  0  0  0  0
  9 12  1  0  0  0  0
 10 11  2  0  0  0  0
 12 13  1  0  0  0  0
 12 16  2  0  0  0  0
 13 14  1  0  0  0  0
 14 15  2  0  0  0  0
 14 26  1  0  0  0  0
 15 16  1  0  0  0  0
 15 17  1  0  0  0  0
 17 18  2  0  0  0  0
 17 22  1  0  0  0  0
 18 19  1  0  0  0  0
 19 20  2  0  0  0  0
 20 21  1  0  0  0  0
 20 23  1  0  0  0  0
 21 22  2  0  0  0  0
 23 24  1  0  0  0  0
 23 25  1  0  0  0  0
 26 27  2  0  0  0  0
 26 31  1  0  0  0  0
 27 28  1  0  0  0  0
 28 29  2  0  0  0  0
 29 30  1  0  0  0  0
 29 32  1  0  0  0  0
 30 31  2  0  0  0  0
 32 33  1  0  0  0  0
 32 34  1  0  0  0  0
M  END
$$$$

 OpenBabel12191814062D

 57 61  0  0  0  0  0  0  0  0999 V2000
    6.5903   -0.2206    0.0000 C   0  0  0  0  0  0  0  0  0  0  0  0
    6.3082    0.5547    0.0000 O   0  0  0  0  0  0  0  0  0  0  0  0
    5.4957    0.6979    0.0000 C   0  0  3  0  0  0  0  0  0  0  0  0
    6.0260    0.0660    0.0000 C   0  0  0  0  0  0  0  0  0  0  0  0
    5.4957   -0.1271    0.0000 C   0  0  0  0  0  0  0  0  0  0  0  0
    4.7812   -0.5396    0.0000 C   0  0  3  0  0  0  0  0  0  0  0  0
    4.7812   -1.3646    0.0000 C   0  0  0  0  0  0  0  0  0  0  0  0
    4.0668   -0.1271    0.0000 C   0  0  0  0  0  0  0  0  0  0  0  0
    3.3523   -0.5396    0.0000 O   0  0  0  0  0  0  0  0  0  0  0  0
    4.0668    0.6979    0.0000 C   0  0  3  0  0  0  0  0  0  0  0  0
    4.7812    1.1104    0.0000 C   0  0  0  0  0  0  0  0  0  0  0  0
    3.3523    1.1104    0.0000 C   0  0  3  0  0  0  0  0  0  0  0  0
    2.5677    0.8555    0.0000 N   0  0  0  0  0  0  0  0  0  0  0  0
    2.3127    0.0709    0.0000 C   0  0  0  0  0  0  0  0  0  0  0  0
    1.5058   -0.1006    0.0000 C   0  0  0  0  0  0  0  0  0  0  0  0
    1.2508   -0.8853    0.0000 C   0  0  0  0  0  0  0  0  0  0  0  0
    0.4438   -1.0568    0.0000 C   0  0  0  0  0  0  0  0  0  0  0  0
    0.1889   -1.8414    0.0000 N   0  0  0  0  0  0  0  0  0  0  0  0
    0.6738   -2.5089    0.0000 C   0  0  0  0  0  0  0  0  0  0  0  0
    0.1889   -3.1763    0.0000 N   0  0  0  0  0  0  0  0  0  0  0  0
   -0.5957   -2.9214    0.0000 C   0  0  0  0  0  0  0  0  0  0  0  0
   -0.5957   -2.0964    0.0000 C   0  0  0  0  0  0  0  0  0  0  0  0
   -1.2632   -3.4063    0.0000 C   0  0  0  0  0  0  0  0  0  0  0  0
   -1.1769   -4.2268    0.0000 C   0  0  0  0  0  0  0  0  0  0  0  0
   -1.8444   -4.7117    0.0000 C   0  0  0  0  0  0  0  0  0  0  0  0
   -2.5980   -4.3761    0.0000 C   0  0  0  0  0  0  0  0  0  0  0  0
   -2.6843   -3.5556    0.0000 N   0  0  0  0  0  0  0  0  0  0  0  0
   -2.0168   -3.0707    0.0000 C   0  0  0  0  0  0  0  0  0  0  0  0
    2.0827    1.5229    0.0000 C   0  0  0  0  0  0  0  0  0  0  0  0
    1.2577    1.5229    0.0000 O   0  0  0  0  0  0  0  0  0  0  0  0
    2.5677    2.1904    0.0000 O   0  0  0  0  0  0  0  0  0  0  0  0
    3.3523    1.9354    0.0000 C   0  0  3  0  0  0  0  0  0  0  0  0
    3.2660    2.7559    0.0000 C   0  0  0  0  0  0  0  0  0  0  0  0
    4.0668    2.3479    0.0000 C   0  0  3  0  0  0  0  0  0  0  0  0
    4.7812    1.9354    0.0000 C   0  0  0  0  0  0  0  0  0  0  0  0
    4.0668    3.1729    0.0000 C   0  0  0  0  0  0  0  0  0  0  0  0
    4.7812    3.5854    0.0000 C   0  0  0  0  0  0  0  0  0  0  0  0
    4.7812    4.4104    0.0000 O   0  0  0  0  0  0  0  0  0  0  0  0
    5.4957    3.1729    0.0000 C   0  0  3  0  0  0  0  0  0  0  0  0
    6.2102    3.5854    0.0000 C   0  0  0  0  0  0  0  0  0  0  0  0
    5.4957    2.3479    0.0000 C   0  0  0  0  0  0  0  0  0  0  0  0
    5.1601    1.5943    0.0000 O   0  0  0  0  0  0  0  0  0  0  0  0
    6.2102    1.9354    0.0000 C   0  0  3  0  0  0  0  0  0  0  0  0
    6.9246    2.3479    0.0000 C   0  0  0  0  0  0  0  0  0  0  0  0
    6.2102    1.1104    0.0000 C   0  0  3  0  0  0  0  0  0  0  0  0
    6.9246    0.6979    0.0000 O   0  0  0  0  0  0  0  0  0  0  0  0
    7.6391    1.1104    0.0000 C   0  0  3  0  0  0  0  0  0  0  0  0
    7.6391    1.9354    0.0000 O   0  0  0  0  0  0  0  0  0  0  0  0
    8.3536    2.3479    0.0000 C   0  0  3  0  0  0  0  0  0  0  0  0
    8.3536    3.1729    0.0000 C   0  0  0  0  0  0  0  0  0  0  0  0
    9.0681    1.9354    0.0000 C   0  0  0  0  0  0  0  0  0  0  0  0
    9.0681    1.1104    0.0000 C   0  0  3  0  0  0  0  0  0  0  0  0
    8.3536    0.6979    0.0000 C   0  0  3  0  0  0  0  0  0  0  0  0
    8.3536   -0.1271    0.0000 O   0  0  0  0  0  0  0  0  0  0  0  0
    9.7825    0.6979    0.0000 N   0  0  0  0  0  0  0  0  0  0  0  0
   10.4970    1.1104    0.0000 C   0  0  0  0  0  0  0  0  0  0  0  0
    9.7825   -0.1271    0.0000 C   0  0  0  0  0  0  0  0  0  0  0  0
  1  2  1  0  0  0  0
  2  3  1  0  0  0  0
  3  4  1  0  0  0  0
  3  5  1  0  0  0  0
  3 45  1  0  0  0  0
  5  6  1  0  0  0  0
  6  7  1  0  0  0  0
  6  8  1  0  0  0  0
  8  9  2  0  0  0  0
  8 10  1  0  0  0  0
 10 11  1  0  0  0  0
 10 12  1  0  0  0  0
 12 13  1  0  0  0  0
 12 32  1  0  0  0  0
 13 14  1  0  0  0  0
 13 29  1  0  0  0  0
 14 15  1  0  0  0  0
 15 16  1  0  0  0  0
 16 17  1  0  0  0  0
 17 18  1  0  0  0  0
 18 19  1  0  0  0  0
 18 22  1  0  0  0  0
 19 20  2  0  0  0  0
 20 21  1  0  0  0  0
 21 22  2  0  0  0  0
 21 23  1  0  0  0  0
 23 24  2  0  0  0  0
 23 28  1  0  0  0  0
 24 25  1  0  0  0  0
 25 26  2  0  0  0  0
 26 27  1  0  0  0  0
 27 28  2  0  0  0  0
 29 30  2  0  0  0  0
 29 31  1  0  0  0  0
 31 32  1  0  0  0  0
 32 33  1  0  0  0  0
 32 34  1  0  0  0  0
 34 35  1  0  0  0  0
 34 36  1  0  0  0  0
 36 37  1  0  0  0  0
 37 38  2  0  0  0  0
 37 39  1  0  0  0  0
 39 40  1  0  0  0  0
 39 41  1  0  0  0  0
 41 42  2  0  0  0  0
 41 43  1  0  0  0  0
 43 44  1  0  0  0  0
 43 45  1  0  0  0  0
 45 46  1  0  0  0  0
 46 47  1  0  0  0  0
 47 48  1  0  0  0  0
 47 53  1  0  0  0  0
 48 49  1  0  0  0  0
 49 50  1  0  0  0  0
 49 51  1  0  0  0  0
 51 52  1  0  0  0  0
 52 53  1  0  0  0  0
 52 55  1  0  0  0  0
 53 54  1  0  0  0  0
 55 56  1  0  0  0  0
 55 57  1  0  0  0  0
M  END
$$$$

 OpenBabel12191814062D

 59 63  0  0  0  0  0  0  0  0999 V2000
    5.3507    4.0460    0.0000 C   0  0  0  0  0  0  0  0  0  0  0  0
    4.5360    3.9158    0.0000 O   0  0  0  0  0  0  0  0  0  0  0  0
    4.2414    3.1452    0.0000 C   0  0  3  0  0  0  0  0  0  0  0  0
    4.9736    2.7557    0.0000 C   0  0  0  0  0  0  0  0  0  0  0  0
    5.5981    2.1961    0.0000 C   0  0  0  0  0  0  0  0  0  0  0  0
    6.1542    1.5464    0.0000 O   0  0  0  0  0  0  0  0  0  0  0  0
    6.1870    0.6842    0.0000 C   0  0  3  0  0  0  0  0  0  0  0  0
    6.6665    0.0128    0.0000 C   0  0  0  0  0  0  0  0  0  0  0  0
    5.4174    0.9811    0.0000 O   0  0  0  0  0  0  0  0  0  0  0  0
    4.8468    0.3942    0.0000 C   0  0  0  0  0  0  0  0  0  0  0  0
    5.2657   -0.3320    0.0000 C   0  0  0  0  0  0  0  0  0  0  0  0
    6.0952   -0.1572    0.0000 C   0  0  0  0  0  0  0  0  0  0  0  0
    6.7067   -0.7110    0.0000 O   0  0  0  0  0  0  0  0  0  0  0  0
    4.7832   -1.0568    0.0000 C   0  0  0  0  0  0  0  0  0  0  0  0
    5.0908   -1.8405    0.0000 C   0  0  0  0  0  0  0  0  0  0  0  0
    5.9077   -1.9558    0.0000 O   0  0  0  0  0  0  0  0  0  0  0  0
    4.5979   -2.4826    0.0000 C   0  0  0  0  0  0  0  0  0  0  0  0
    4.9372   -3.2346    0.0000 C   0  0  0  0  0  0  0  0  0  0  0  0
    4.4556   -3.9045    0.0000 N   0  0  0  0  0  0  0  0  0  0  0  0
    4.7948   -4.6565    0.0000 N   0  0  0  0  0  0  0  0  0  0  0  0
    5.6157   -4.7386    0.0000 C   0  0  0  0  0  0  0  0  0  0  0  0
    5.9550   -5.4906    0.0000 C   0  0  0  0  0  0  0  0  0  0  0  0
    5.4734   -6.1605    0.0000 N   0  0  0  0  0  0  0  0  0  0  0  0
    5.8127   -6.9125    0.0000 C   0  0  0  0  0  0  0  0  0  0  0  0
    4.6525   -6.0783    0.0000 C   0  0  0  0  0  0  0  0  0  0  0  0
    4.3132   -5.3263    0.0000 C   0  0  0  0  0  0  0  0  0  0  0  0
    3.7602   -2.4251    0.0000 C   0  0  0  0  0  0  0  0  0  0  0  0
    2.9412   -2.7016    0.0000 N   0  0  0  0  0  0  0  0  0  0  0  0
    2.0923   -2.7219    0.0000 C   0  0  0  0  0  0  0  0  0  0  0  0
    1.9428   -3.5332    0.0000 O   0  0  0  0  0  0  0  0  0  0  0  0
    1.2830   -2.3907    0.0000 C   0  0  0  0  0  0  0  0  0  0  0  0
    0.8488   -3.0922    0.0000 C   0  0  0  0  0  0  0  0  0  0  0  0
    0.6295   -1.8176    0.0000 C   0  0  0  0  0  0  0  0  0  0  0  0
    0.1608   -1.0668    0.0000 C   0  0  0  0  0  0  0  0  0  0  0  0
   -0.0664   -0.2691    0.0000 C   0  0  0  0  0  0  0  0  0  0  0  0
   -0.0786    0.5614    0.0000 C   0  0  3  0  0  0  0  0  0  0  0  0
   -0.8980    0.6575    0.0000 C   0  0  0  0  0  0  0  0  0  0  0  0
    0.1249    1.3644    0.0000 C   0  0  3  0  0  0  0  0  0  0  0  0
   -0.6415    1.6697    0.0000 O   0  0  0  0  0  0  0  0  0  0  0  0
    0.5293    2.0873    0.0000 C   0  0  3  0  0  0  0  0  0  0  0  0
   -0.1320    2.5806    0.0000 C   0  0  0  0  0  0  0  0  0  0  0  0
    1.1070    2.6810    0.0000 C   0  0  3  0  0  0  0  0  0  0  0  0
    0.5959    3.3286    0.0000 O   0  0  0  0  0  0  0  0  0  0  0  0
    1.8185    3.1048    0.0000 C   0  0  3  0  0  0  0  0  0  0  0  0
    1.4923    3.8626    0.0000 C   0  0  0  0  0  0  0  0  0  0  0  0
    2.6149    3.3301    0.0000 C   0  0  3  0  0  0  0  0  0  0  0  0
    2.4954    4.1464    0.0000 O   0  0  0  0  0  0  0  0  0  0  0  0
    1.7288    4.4511    0.0000 C   0  0  0  0  0  0  0  0  0  0  0  0
    1.0816    3.9395    0.0000 C   0  0  0  0  0  0  0  0  0  0  0  0
    1.6093    5.2674    0.0000 O   0  0  0  0  0  0  0  0  0  0  0  0
    3.4408    3.3424    0.0000 C   0  0  3  0  0  0  0  0  0  0  0  0
    3.5340    4.1621    0.0000 C   0  0  0  0  0  0  0  0  0  0  0  0
    3.4652   -1.6570    0.0000 C   0  0  0  0  0  0  0  0  0  0  0  0
    2.6462   -1.5579    0.0000 O   0  0  0  0  0  0  0  0  0  0  0  0
    3.9394   -0.9751    0.0000 C   0  0  0  0  0  0  0  0  0  0  0  0
    3.5699   -0.2246    0.0000 C   0  0  0  0  0  0  0  0  0  0  0  0
    2.7460   -0.1812    0.0000 O   0  0  0  0  0  0  0  0  0  0  0  0
    4.0099    0.4731    0.0000 C   0  0  0  0  0  0  0  0  0  0  0  0
    3.6458    1.2134    0.0000 C   0  0  0  0  0  0  0  0  0  0  0  0
  1  2  1  0  0  0  0
  2  3  1  0  0  0  0
  3  4  1  0  0  0  0
  3 51  1  0  0  0  0
  4  5  2  0  0  0  0
  5  6  1  0  0  0  0
  6  7  1  0  0  0  0
  7  8  1  0  0  0  0
  7  9  1  0  0  0  0
  7 12  1  0  0  0  0
  9 10  1  0  0  0  0
 10 11  2  0  0  0  0
 10 58  1  0  0  0  0
 11 12  1  0  0  0  0
 11 14  1  0  0  0  0
 12 13  2  0  0  0  0
 14 15  2  0  0  0  0
 14 55  1  0  0  0  0
 15 16  1  0  0  0  0
 15 17  1  0  0  0  0
 17 18  1  0  0  0  0
 17 27  2  0  0  0  0
 18 19  2  0  0  0  0
 19 20  1  0  0  0  0
 20 21  1  0  0  0  0
 20 26  1  0  0  0  0
 21 22  1  0  0  0  0
 22 23  1  0  0  0  0
 23 24  1  0  0  0  0
 23 25  1  0  0  0  0
 25 26  1  0  0  0  0
 27 28  1  0  0  0  0
 27 53  1  0  0  0  0
 28 29  1  0  0  0  0
 29 30  2  0  0  0  0
 29 31  1  0  0  0  0
 31 32  1  0  0  0  0
 31 33  2  0  0  0  0
 33 34  1  0  0  0  0
 34 35  2  0  0  0  0
 35 36  1  0  0  0  0
 36 37  1  0  0  0  0
 36 38  1  0  0  0  0
 38 39  1  0  0  0  0
 38 40  1  0  0  0  0
 40 41  1  0  0  0  0
 40 42  1  0  0  0  0
 42 43  1  0  0  0  0
 42 44  1  0  0  0  0
 44 45  1  0  0  0  0
 44 46  1  0  0  0  0
 46 47  1  0  0  0  0
 46 51  1  0  0  0  0
 47 48  1  0  0  0  0
 48 49  1  0  0  0  0
 48 50  2  0  0  0  0
 51 52  1  0  0  0  0
 53 54  1  0  0  0  0
 53 55  2  0  0  0  0
 55 56  1  0  0  0  0
 56 57  1  0  0  0  0
 56 58  2  0  0  0  0
 58 59  1  0  0  0  0
M  END
$$$$

 OpenBabel12191814062D

 58 64  0  0  0  0  0  0  0  0999 V2000
    2.1434    3.7125    0.0000 C   0  0  0  0  0  0  0  0  0  0  0  0
    2.8579    3.3000    0.0000 O   0  0  0  0  0  0  0  0  0  0  0  0
    2.8579    2.4750    0.0000 C   0  0  0  0  0  0  0  0  0  0  0  0
    3.5724    2.0625    0.0000 C   0  0  0  0  0  0  0  0  0  0  0  0
    4.2868    2.4750    0.0000 C   0  0  0  0  0  0  0  0  0  0  0  0
    4.2868    3.3000    0.0000 C   0  0  3  0  0  0  0  0  0  0  0  0
    3.5724    3.7125    0.0000 C   0  0  0  0  0  0  0  0  0  0  0  0
    5.0013    3.7125    0.0000 O   0  0  0  0  0  0  0  0  0  0  0  0
    5.0013    4.5375    0.0000 C   0  0  0  0  0  0  0  0  0  0  0  0
    4.2868    4.9500    0.0000 O   0  0  0  0  0  0  0  0  0  0  0  0
    5.7158    4.9500    0.0000 O   0  0  0  0  0  0  0  0  0  0  0  0
    5.7158    5.7750    0.0000 C   0  0  0  0  0  0  0  0  0  0  0  0
    5.0013    6.1875    0.0000 C   0  0  0  0  0  0  0  0  0  0  0  0
    5.0013    7.0125    0.0000 C   0  0  0  0  0  0  0  0  0  0  0  0
    5.7158    7.4250    0.0000 C   0  0  0  0  0  0  0  0  0  0  0  0
    5.7158    8.2500    0.0000 O   0  0  0  0  0  0  0  0  0  0  0  0
    6.4302    7.0125    0.0000 C   0  0  0  0  0  0  0  0  0  0  0  0
    6.4302    6.1875    0.0000 C   0  0  0  0  0  0  0  0  0  0  0  0
    3.5724    1.2375    0.0000 C   0  0  0  0  0  0  0  0  0  0  0  0
    4.2868    0.8250    0.0000 C   0  0  0  0  0  0  0  0  0  0  0  0
    5.0013    1.2375    0.0000 C   0  0  0  0  0  0  0  0  0  0  0  0
    5.0013    2.0625    0.0000 C   0  0  0  0  0  0  0  0  0  0  0  0
    5.7158    2.4750    0.0000 C   0  0  3  0  0  0  0  0  0  0  0  0
    5.7158    3.3000    0.0000 C   0  0  0  0  0  0  0  0  0  0  0  0
    6.4302    2.0625    0.0000 O   0  0  0  0  0  0  0  0  0  0  0  0
    6.9152    1.3951    0.0000 C   0  0  0  0  0  0  0  0  0  0  0  0
    6.5796    0.6414    0.0000 O   0  0  0  0  0  0  0  0  0  0  0  0
    7.7356    1.4813    0.0000 C   0  0  0  0  0  0  0  0  0  0  0  0
    8.0712    2.2350    0.0000 C   0  0  0  0  0  0  0  0  0  0  0  0
    8.8917    2.3212    0.0000 C   0  0  0  0  0  0  0  0  0  0  0  0
    9.3766    1.6538    0.0000 C   0  0  0  0  0  0  0  0  0  0  0  0
    9.0410    0.9001    0.0000 C   0  0  0  0  0  0  0  0  0  0  0  0
    8.2206    0.8139    0.0000 C   0  0  0  0  0  0  0  0  0  0  0  0
    5.7158    0.8250    0.0000 C   0  0  0  0  0  0  0  0  0  0  0  0
    6.4302    1.2375    0.0000 O   0  0  0  0  0  0  0  0  0  0  0  0
    7.1447    0.8250    0.0000 C   0  0  0  0  0  0  0  0  0  0  0  0
    5.7158    0.0000    0.0000 C   0  0  0  0  0  0  0  0  0  0  0  0
    6.4302   -0.4125    0.0000 O   0  0  0  0  0  0  0  0  0  0  0  0
    5.0013   -0.4125    0.0000 C   0  0  0  0  0  0  0  0  0  0  0  0
    5.0013   -1.2375    0.0000 C   0  0  0  0  0  0  0  0  0  0  0  0
    5.7158   -1.6500    0.0000 O   0  0  0  0  0  0  0  0  0  0  0  0
    4.2868   -1.6500    0.0000 C   0  0  0  0  0  0  0  0  0  0  0  0
    3.5724   -1.2375    0.0000 C   0  0  0  0  0  0  0  0  0  0  0  0
    2.8579   -1.6500    0.0000 O   0  0  0  0  0  0  0  0  0  0  0  0
    2.8579   -2.4750    0.0000 C   0  0  0  0  0  0  0  0  0  0  0  0
    3.5724   -0.4125    0.0000 C   0  0  0  0  0  0  0  0  0  0  0  0
    4.2868    0.0000    0.0000 C   0  0  0  0  0  0  0  0  0  0  0  0
    2.8579    0.0000    0.0000 C   0  0  0  0  0  0  0  0  0  0  0  0
    2.1434   -0.4125    0.0000 C   0  0  0  0  0  0  0  0  0  0  0  0
    2.1434   -1.2375    0.0000 O   0  0  0  0  0  0  0  0  0  0  0  0
    1.4289   -1.6500    0.0000 C   0  0  0  0  0  0  0  0  0  0  0  0
    1.4289    0.0000    0.0000 C   0  0  0  0  0  0  0  0  0  0  0  0
    1.4289    0.8250    0.0000 C   0  0  0  0  0  0  0  0  0  0  0  0
    0.7145    1.2375    0.0000 O   0  0  0  0  0  0  0  0  0  0  0  0
    2.1434    1.2375    0.0000 C   0  0  0  0  0  0  0  0  0  0  0  0
    2.1434    2.0625    0.0000 C   0  0  0  0  0  0  0  0  0  0  0  0
    1.4289    2.4750    0.0000 O   0  0  0  0  0  0  0  0  0  0  0  0
    2.8579    0.8250    0.0000 C   0  0  0  0  0  0  0  0  0  0  0  0
  1  2  1  0  0  0  0
  2  3  1  0  0  0  0
  3  4  2  0  0  0  0
  3 56  1  0  0  0  0
  4  5  1  0  0  0  0
  4 19  1  0  0  0  0
  5  6  1  0  0  0  0
  6  7  1  0  0  0  0
  6  8  1  0  0  0  0
  8  9  1  0  0  0  0
  9 10  2  0  0  0  0
  9 11  1  0  0  0  0
 11 12  1  0  0  0  0
 12 13  2  0  0  0  0
 12 18  1  0  0  0  0
 13 14  1  0  0  0  0
 14 15  2  0  0  0  0
 15 16  1  0  0  0  0
 15 17  1  0  0  0  0
 17 18  2  0  0  0  0
 19 20  2  0  0  0  0
 19 58  1  0  0  0  0
 20 21  1  0  0  0  0
 20 47  1  0  0  0  0
 21 22  1  0  0  0  0
 21 34  2  0  0  0  0
 22 23  1  0  0  0  0
 23 24  1  0  0  0  0
 23 25  1  0  0  0  0
 25 26  1  0  0  0  0
 26 27  2  0  0  0  0
 26 28  1  0  0  0  0
 28 29  2  0  0  0  0
 28 33  1  0  0  0  0
 29 30  1  0  0  0  0
 30 31  2  0  0  0  0
 31 32  1  0  0  0  0
 32 33  2  0  0  0  0
 34 35  1  0  0  0  0
 34 37  1  0  0  0  0
 35 36  1  0  0  0  0
 37 38  2  0  0  0  0
 37 39  1  0  0  0  0
 39 40  2  0  0  0  0
 39 47  1  0  0  0  0
 40 41  1  0  0  0  0
 40 42  1  0  0  0  0
 42 43  2  0  0  0  0
 43 44  1  0  0  0  0
 43 46  1  0  0  0  0
 44 45  1  0  0  0  0
 46 47  2  0  0  0  0
 46 48  1  0  0  0  0
 48 49  2  0  0  0  0
 48 58  1  0  0  0  0
 49 50  1  0  0  0  0
 49 52  1  0  0  0  0
 50 51  1  0  0  0  0
 52 53  2  0  0  0  0
 53 54  1  0  0  0  0
 53 55  1  0  0  0  0
 55 56  1  0  0  0  0
 55 58  2  0  0  0  0
 56 57  2  0  0  0  0
M  END
$$$$

 OpenBabel12191814062D

 17 18  0  0  0  0  0  0  0  0999 V2000
    2.1434   -1.2375    0.0000 C   0  0  0  0  0  0  0  0  0  0  0  0
    1.4289   -1.6500    0.0000 O   0  0  0  0  0  0  0  0  0  0  0  0
    1.4289   -2.4750    0.0000 C   0  0  0  0  0  0  0  0  0  0  0  0
    2.1434   -2.8875    0.0000 C   0  0  0  0  0  0  0  0  0  0  0  0
    2.1434   -3.7125    0.0000 C   0  0  0  0  0  0  0  0  0  0  0  0
    2.8579   -4.1250    0.0000 O   0  0  0  0  0  0  0  0  0  0  0  0
    1.4289   -4.1250    0.0000 O   0  0  0  0  0  0  0  0  0  0  0  0
    0.7145   -3.7125    0.0000 C   0  0  0  0  0  0  0  0  0  0  0  0
    0.0000   -4.1250    0.0000 C   0  0  0  0  0  0  0  0  0  0  0  0
    0.0000   -4.9500    0.0000 C   0  0  0  0  0  0  0  0  0  0  0  0
   -0.7145   -5.3625    0.0000 C   0  0  0  0  0  0  0  0  0  0  0  0
   -0.7145   -6.1875    0.0000 C   0  0  0  0  0  0  0  0  0  0  0  0
   -1.4289   -6.6000    0.0000 C   0  0  0  0  0  0  0  0  0  0  0  0
   -2.1434   -6.1875    0.0000 C   0  0  0  0  0  0  0  0  0  0  0  0
   -2.1434   -5.3625    0.0000 C   0  0  0  0  0  0  0  0  0  0  0  0
   -1.4289   -4.9500    0.0000 C   0  0  0  0  0  0  0  0  0  0  0  0
    0.7145   -2.8875    0.0000 C   0  0  0  0  0  0  0  0  0  0  0  0
  1  2  1  0  0  0  0
  2  3  1  0  0  0  0
  3  4  2  0  0  0  0
  3 17  1  0  0  0  0
  4  5  1  0  0  0  0
  5  6  2  0  0  0  0
  5  7  1  0  0  0  0
  7  8  1  0  0  0  0
  8  9  1  0  0  0  0
  8 17  2  0  0  0  0
  9 10  2  0  0  0  0
 10 11  1  0  0  0  0
 11 12  2  0  0  0  0
 11 16  1  0  0  0  0
 12 13  1  0  0  0  0
 13 14  2  0  0  0  0
 14 15  1  0  0  0  0
 15 16  2  0  0  0  0
M  END
$$$$

 OpenBabel12191814062D

 20 22  0  0  0  0  0  0  0  0999 V2000
    6.2102    6.0604    0.0000 C   0  0  0  0  0  0  0  0  0  0  0  0
    5.4957    5.6479    0.0000 O   0  0  0  0  0  0  0  0  0  0  0  0
    5.4957    4.8229    0.0000 C   0  0  0  0  0  0  0  0  0  0  0  0
    6.2102    4.4104    0.0000 C   0  0  0  0  0  0  0  0  0  0  0  0
    6.2102    3.5854    0.0000 C   0  0  0  0  0  0  0  0  0  0  0  0
    6.9246    3.1729    0.0000 O   0  0  0  0  0  0  0  0  0  0  0  0
    5.4957    3.1729    0.0000 O   0  0  0  0  0  0  0  0  0  0  0  0
    4.7812    3.5854    0.0000 C   0  0  3  0  0  0  0  0  0  0  0  0
    4.7812    4.4104    0.0000 C   0  0  0  0  0  0  0  0  0  0  0  0
    4.0668    3.1729    0.0000 C   0  0  0  0  0  0  0  0  0  0  0  0
    4.0668    2.3479    0.0000 C   0  0  0  0  0  0  0  0  0  0  0  0
    3.3523    1.9354    0.0000 C   0  0  0  0  0  0  0  0  0  0  0  0
    3.3523    1.1104    0.0000 C   0  0  0  0  0  0  0  0  0  0  0  0
    2.6378    0.6979    0.0000 C   0  0  0  0  0  0  0  0  0  0  0  0
    1.9233    1.1104    0.0000 C   0  0  0  0  0  0  0  0  0  0  0  0
    1.1387    0.8555    0.0000 O   0  0  0  0  0  0  0  0  0  0  0  0
    0.6538    1.5229    0.0000 C   0  0  0  0  0  0  0  0  0  0  0  0
    1.1387    2.1904    0.0000 O   0  0  0  0  0  0  0  0  0  0  0  0
    1.9233    1.9354    0.0000 C   0  0  0  0  0  0  0  0  0  0  0  0
    2.6378    2.3479    0.0000 C   0  0  0  0  0  0  0  0  0  0  0  0
  1  2  1  0  0  0  0
  2  3  1  0  0  0  0
  3  4  2  0  0  0  0
  3  9  1  0  0  0  0
  4  5  1  0  0  0  0
  5  6  2  0  0  0  0
  5  7  1  0  0  0  0
  7  8  1  0  0  0  0
  8  9  1  0  0  0  0
  8 10  1  0  0  0  0
 10 11  2  0  0  0  0
 11 12  1  0  0  0  0
 12 13  2  0  0  0  0
 12 20  1  0  0  0  0
 13 14  1  0  0  0  0
 14 15  2  0  0  0  0
 15 16  1  0  0  0  0
 15 19  1  0  0  0  0
 16 17  1  0  0  0  0
 17 18  1  0  0  0  0
 18 19  1  0  0  0  0
 19 20  2  0  0  0  0
M  END
$$$$

 OpenBabel12191814062D

 20 22  0  0  0  0  0  0  0  0999 V2000
    6.2102    6.0604    0.0000 C   0  0  0  0  0  0  0  0  0  0  0  0
    5.4957    5.6479    0.0000 O   0  0  0  0  0  0  0  0  0  0  0  0
    5.4957    4.8229    0.0000 C   0  0  0  0  0  0  0  0  0  0  0  0
    6.2102    4.4104    0.0000 C   0  0  0  0  0  0  0  0  0  0  0  0
    6.2102    3.5854    0.0000 C   0  0  0  0  0  0  0  0  0  0  0  0
    6.9246    3.1729    0.0000 O   0  0  0  0  0  0  0  0  0  0  0  0
    5.4957    3.1729    0.0000 O   0  0  0  0  0  0  0  0  0  0  0  0
    4.7812    3.5854    0.0000 C   0  0  3  0  0  0  0  0  0  0  0  0
    4.0668    3.1729    0.0000 C   0  0  0  0  0  0  0  0  0  0  0  0
    4.0668    2.3479    0.0000 C   0  0  0  0  0  0  0  0  0  0  0  0
    3.3523    1.9354    0.0000 C   0  0  0  0  0  0  0  0  0  0  0  0
    3.3523    1.1104    0.0000 C   0  0  0  0  0  0  0  0  0  0  0  0
    2.6378    0.6979    0.0000 C   0  0  0  0  0  0  0  0  0  0  0  0
    1.9233    1.1104    0.0000 C   0  0  0  0  0  0  0  0  0  0  0  0
    1.1387    0.8555    0.0000 O   0  0  0  0  0  0  0  0  0  0  0  0
    0.6538    1.5229    0.0000 C   0  0  0  0  0  0  0  0  0  0  0  0
    1.1387    2.1904    0.0000 O   0  0  0  0  0  0  0  0  0  0  0  0
    1.9233    1.9354    0.0000 C   0  0  0  0  0  0  0  0  0  0  0  0
    2.6378    2.3479    0.0000 C   0  0  0  0  0  0  0  0  0  0  0  0
    4.7812    4.4104    0.0000 C   0  0  0  0  0  0  0  0  0  0  0  0
  1  2  1  0  0  0  0
  2  3  1  0  0  0  0
  3  4  2  0  0  0  0
  3 20  1  0  0  0  0
  4  5  1  0  0  0  0
  5  6  2  0  0  0  0
  5  7  1  0  0  0  0
  7  8  1  0  0  0  0
  8  9  1  0  0  0  0
  8 20  1  0  0  0  0
  9 10  1  0  0  0  0
 10 11  1  0  0  0  0
 11 12  2  0  0  0  0
 11 19  1  0  0  0  0
 12 13  1  0  0  0  0
 13 14  2  0  0  0  0
 14 15  1  0  0  0  0
 14 18  1  0  0  0  0
 15 16  1  0  0  0  0
 16 17  1  0  0  0  0
 17 18  1  0  0  0  0
 18 19  2  0  0  0  0
M  END
$$$$

 OpenBabel12191814062D

 31 35  0  0  0  0  0  0  0  0999 V2000
    3.2789    2.0625    0.0000 C   0  0  0  0  0  0  0  0  0  0  0  0
    2.5645    1.6500    0.0000 O   0  0  0  0  0  0  0  0  0  0  0  0
    2.5645    0.8250    0.0000 C   0  0  3  0  0  0  0  0  0  0  0  0
    3.2789    1.2375    0.0000 C   0  0  0  0  0  0  0  0  0  0  0  0
    3.9934    0.8250    0.0000 C   0  0  3  0  0  0  0  0  0  0  0  0
    4.7079    1.2375    0.0000 C   0  0  0  0  0  0  0  0  0  0  0  0
    5.4223    0.8250    0.0000 O   0  0  0  0  0  0  0  0  0  0  0  0
    6.1368    1.2375    0.0000 C   0  0  0  0  0  0  0  0  0  0  0  0
    6.1368    2.0625    0.0000 O   0  0  0  0  0  0  0  0  0  0  0  0
    6.8513    0.8250    0.0000 C   0  0  0  0  0  0  0  0  0  0  0  0
    7.5658    1.2375    0.0000 C   0  0  0  0  0  0  0  0  0  0  0  0
    8.2802    0.8250    0.0000 N   0  0  0  0  0  0  0  0  0  0  0  0
    8.2802   -0.0000    0.0000 C   0  0  0  0  0  0  0  0  0  0  0  0
    7.5658   -0.4125    0.0000 C   0  0  0  0  0  0  0  0  0  0  0  0
    7.5658   -1.2375    0.0000 Br  0  0  0  0  0  0  0  0  0  0  0  0
    6.8513   -0.0000    0.0000 C   0  0  0  0  0  0  0  0  0  0  0  0
    3.9934   -0.0000    0.0000 C   0  0  0  0  0  0  0  0  0  0  0  0
    3.2789   -0.4125    0.0000 N   0  0  0  0  0  0  0  0  0  0  0  0
    3.2789   -1.2375    0.0000 C   0  0  0  0  0  0  0  0  0  0  0  0
    2.5645    0.0000    0.0000 C   0  0  3  0  0  0  0  0  0  0  0  0
    1.8500   -0.4125    0.0000 C   0  0  0  0  0  0  0  0  0  0  0  0
    1.1355   -0.0000    0.0000 C   0  0  0  0  0  0  0  0  0  0  0  0
    0.3509   -0.2549    0.0000 C   0  0  0  0  0  0  0  0  0  0  0  0
   -0.1340    0.4125    0.0000 N   0  0  0  0  0  0  0  0  0  0  0  0
   -0.9590    0.4125    0.0000 C   0  0  0  0  0  0  0  0  0  0  0  0
    0.3509    1.0799    0.0000 C   0  0  0  0  0  0  0  0  0  0  0  0
    0.1794    1.8869    0.0000 C   0  0  0  0  0  0  0  0  0  0  0  0
    0.7925    2.4389    0.0000 C   0  0  0  0  0  0  0  0  0  0  0  0
    1.5771    2.1840    0.0000 C   0  0  0  0  0  0  0  0  0  0  0  0
    1.8500    1.2375    0.0000 C   0  0  0  0  0  0  0  0  0  0  0  0
    1.1355    0.8250    0.0000 C   0  0  0  0  0  0  0  0  0  0  0  0
  1  2  1  0  0  0  0
  2  3  1  0  0  0  0
  3  4  1  0  0  0  0
  3 20  1  0  0  0  0
  3 30  1  0  0  0  0
  4  5  1  0  0  0  0
  5  6  1  0  0  0  0
  5 17  1  0  0  0  0
  6  7  1  0  0  0  0
  7  8  1  0  0  0  0
  8  9  2  0  0  0  0
  8 10  1  0  0  0  0
 10 11  2  0  0  0  0
 10 16  1  0  0  0  0
 11 12  1  0  0  0  0
 12 13  2  0  0  0  0
 13 14  1  0  0  0  0
 14 15  1  0  0  0  0
 14 16  2  0  0  0  0
 17 18  1  0  0  0  0
 18 19  1  0  0  0  0
 18 20  1  0  0  0  0
 20 21  1  0  0  0  0
 21 22  1  0  0  0  0
 22 23  2  0  0  0  0
 22 31  1  0  0  0  0
 23 24  1  0  0  0  0
 24 25  1  0  0  0  0
 24 26  1  0  0  0  0
 26 27  2  0  0  0  0
 26 31  1  0  0  0  0
 27 28  1  0  0  0  0
 28 29  2  0  0  0  0
 29 30  1  0  0  0  0
 30 31  2  0  0  0  0
M  END
$$$$

 OpenBabel12191814062D

 46 51  0  0  0  0  0  0  0  0999 V2000
    2.0210   -2.0327    0.0000 C   0  0  0  0  0  0  0  0  0  0  0  0
    1.7489   -2.8115    0.0000 O   0  0  0  0  0  0  0  0  0  0  0  0
    2.2873   -3.4366    0.0000 C   0  0  3  0  0  0  0  0  0  0  0  0
    2.0151   -4.2154    0.0000 C   0  0  3  0  0  0  0  0  0  0  0  0
    2.5535   -4.8405    0.0000 C   0  0  0  0  0  0  0  0  0  0  0  0
    3.3641   -4.6868    0.0000 C   0  0  3  0  0  0  0  0  0  0  0  0
    3.9025   -5.3119    0.0000 C   0  0  0  0  0  0  0  0  0  0  0  0
    4.7131   -5.1582    0.0000 N   0  0  3  0  0  0  0  0  0  0  0  0
    5.2515   -5.7833    0.0000 C   0  0  0  0  0  0  0  0  0  0  0  0
    6.0620   -5.6295    0.0000 C   0  0  0  0  0  0  0  0  0  0  0  0
    6.3342   -4.8507    0.0000 C   0  0  0  0  0  0  0  0  0  0  0  0
    5.7957   -4.2256    0.0000 C   0  0  0  0  0  0  0  0  0  0  0  0
    6.2239   -3.5204    0.0000 N   0  0  0  0  0  0  0  0  0  0  0  0
    7.0269   -3.7096    0.0000 C   0  0  0  0  0  0  0  0  0  0  0  0
    7.7048   -3.2395    0.0000 C   0  0  0  0  0  0  0  0  0  0  0  0
    8.4509   -3.5916    0.0000 C   0  0  0  0  0  0  0  0  0  0  0  0
    9.1289   -3.1215    0.0000 O   0  0  0  0  0  0  0  0  0  0  0  0
    9.8750   -3.4735    0.0000 C   0  0  0  0  0  0  0  0  0  0  0  0
    8.5191   -4.4138    0.0000 C   0  0  0  0  0  0  0  0  0  0  0  0
    7.8411   -4.8839    0.0000 C   0  0  0  0  0  0  0  0  0  0  0  0
    7.0950   -4.5318    0.0000 C   0  0  0  0  0  0  0  0  0  0  0  0
    4.9852   -4.3793    0.0000 C   0  0  3  0  0  0  0  0  0  0  0  0
    4.4468   -3.7542    0.0000 C   0  0  0  0  0  0  0  0  0  0  0  0
    3.6362   -3.9080    0.0000 C   0  0  3  0  0  0  0  0  0  0  0  0
    3.0978   -3.2829    0.0000 C   0  0  3  0  0  0  0  0  0  0  0  0
    3.3700   -2.5041    0.0000 C   0  0  0  0  0  0  0  0  0  0  0  0
    4.1805   -2.3503    0.0000 O   0  0  0  0  0  0  0  0  0  0  0  0
    2.8316   -1.8790    0.0000 O   0  0  0  0  0  0  0  0  0  0  0  0
    3.1037   -1.1001    0.0000 C   0  0  0  0  0  0  0  0  0  0  0  0
    1.2046   -4.3692    0.0000 O   0  0  0  0  0  0  0  0  0  0  0  0
    0.9324   -5.1480    0.0000 C   0  0  0  0  0  0  0  0  0  0  0  0
    1.4709   -5.7731    0.0000 O   0  0  0  0  0  0  0  0  0  0  0  0
    0.1219   -5.3017    0.0000 C   0  0  0  0  0  0  0  0  0  0  0  0
   -0.1503   -6.0805    0.0000 C   0  0  0  0  0  0  0  0  0  0  0  0
   -0.9608   -6.2343    0.0000 C   0  0  0  0  0  0  0  0  0  0  0  0
   -1.2329   -7.0131    0.0000 C   0  0  0  0  0  0  0  0  0  0  0  0
   -2.0435   -7.1668    0.0000 C   0  0  0  0  0  0  0  0  0  0  0  0
   -2.3156   -7.9456    0.0000 O   0  0  0  0  0  0  0  0  0  0  0  0
   -3.1262   -8.0993    0.0000 C   0  0  0  0  0  0  0  0  0  0  0  0
   -2.5819   -6.5417    0.0000 C   0  0  0  0  0  0  0  0  0  0  0  0
   -3.3925   -6.6954    0.0000 O   0  0  0  0  0  0  0  0  0  0  0  0
   -3.6646   -7.4743    0.0000 C   0  0  0  0  0  0  0  0  0  0  0  0
   -2.3098   -5.7629    0.0000 C   0  0  0  0  0  0  0  0  0  0  0  0
   -2.8482   -5.1378    0.0000 O   0  0  0  0  0  0  0  0  0  0  0  0
   -2.5760   -4.3590    0.0000 C   0  0  0  0  0  0  0  0  0  0  0  0
   -1.4992   -5.6092    0.0000 C   0  0  0  0  0  0  0  0  0  0  0  0
  1  2  1  0  0  0  0
  2  3  1  0  0  0  0
  3  4  1  0  0  0  0
  3 25  1  0  0  0  0
  4  5  1  0  0  0  0
  4 30  1  0  0  0  0
  5  6  1  0  0  0  0
  6  7  1  0  0  0  0
  6 24  1  0  0  0  0
  7  8  1  0  0  0  0
  8  9  1  0  0  0  0
  8 22  1  0  0  0  0
  9 10  1  0  0  0  0
 10 11  1  0  0  0  0
 11 12  2  0  0  0  0
 11 21  1  0  0  0  0
 12 13  1  0  0  0  0
 12 22  1  0  0  0  0
 13 14  1  0  0  0  0
 14 15  2  0  0  0  0
 14 21  1  0  0  0  0
 15 16  1  0  0  0  0
 16 17  1  0  0  0  0
 16 19  2  0  0  0  0
 17 18  1  0  0  0  0
 19 20  1  0  0  0  0
 20 21  2  0  0  0  0
 22 23  1  0  0  0  0
 23 24  1  0  0  0  0
 24 25  1  0  0  0  0
 25 26  1  0  0  0  0
 26 27  2  0  0  0  0
 26 28  1  0  0  0  0
 28 29  1  0  0  0  0
 30 31  1  0  0  0  0
 31 32  2  0  0  0  0
 31 33  1  0  0  0  0
 33 34  2  0  0  0  0
 34 35  1  0  0  0  0
 35 36  2  0  0  0  0
 35 46  1  0  0  0  0
 36 37  1  0  0  0  0
 37 38  1  0  0  0  0
 37 40  2  0  0  0  0
 38 39  1  0  0  0  0
 40 41  1  0  0  0  0
 40 43  1  0  0  0  0
 41 42  1  0  0  0  0
 43 44  1  0  0  0  0
 43 46  2  0  0  0  0
 44 45  1  0  0  0  0
M  END
$$$$

 OpenBabel12191814062D

 44 49  0  0  0  0  0  0  0  0999 V2000
    2.0210   -2.0327    0.0000 C   0  0  0  0  0  0  0  0  0  0  0  0
    1.7489   -2.8115    0.0000 O   0  0  0  0  0  0  0  0  0  0  0  0
    2.2873   -3.4366    0.0000 C   0  0  3  0  0  0  0  0  0  0  0  0
    2.0151   -4.2154    0.0000 C   0  0  3  0  0  0  0  0  0  0  0  0
    2.5535   -4.8405    0.0000 C   0  0  0  0  0  0  0  0  0  0  0  0
    3.3641   -4.6868    0.0000 C   0  0  3  0  0  0  0  0  0  0  0  0
    3.9025   -5.3119    0.0000 C   0  0  0  0  0  0  0  0  0  0  0  0
    4.7131   -5.1582    0.0000 N   0  0  3  0  0  0  0  0  0  0  0  0
    5.2515   -5.7833    0.0000 C   0  0  0  0  0  0  0  0  0  0  0  0
    6.0620   -5.6295    0.0000 C   0  0  0  0  0  0  0  0  0  0  0  0
    6.3342   -4.8507    0.0000 C   0  0  0  0  0  0  0  0  0  0  0  0
    5.7957   -4.2256    0.0000 C   0  0  0  0  0  0  0  0  0  0  0  0
    6.2239   -3.5204    0.0000 N   0  0  0  0  0  0  0  0  0  0  0  0
    7.0269   -3.7096    0.0000 C   0  0  0  0  0  0  0  0  0  0  0  0
    7.7048   -3.2395    0.0000 C   0  0  0  0  0  0  0  0  0  0  0  0
    8.4509   -3.5916    0.0000 C   0  0  0  0  0  0  0  0  0  0  0  0
    9.1289   -3.1215    0.0000 O   0  0  0  0  0  0  0  0  0  0  0  0
    9.8750   -3.4735    0.0000 C   0  0  0  0  0  0  0  0  0  0  0  0
    8.5191   -4.4138    0.0000 C   0  0  0  0  0  0  0  0  0  0  0  0
    7.8411   -4.8839    0.0000 C   0  0  0  0  0  0  0  0  0  0  0  0
    7.0950   -4.5318    0.0000 C   0  0  0  0  0  0  0  0  0  0  0  0
    4.9852   -4.3793    0.0000 C   0  0  3  0  0  0  0  0  0  0  0  0
    4.4468   -3.7542    0.0000 C   0  0  0  0  0  0  0  0  0  0  0  0
    3.6362   -3.9080    0.0000 C   0  0  3  0  0  0  0  0  0  0  0  0
    3.0978   -3.2829    0.0000 C   0  0  3  0  0  0  0  0  0  0  0  0
    3.3700   -2.5041    0.0000 C   0  0  0  0  0  0  0  0  0  0  0  0
    4.1805   -2.3503    0.0000 O   0  0  0  0  0  0  0  0  0  0  0  0
    2.8316   -1.8790    0.0000 O   0  0  0  0  0  0  0  0  0  0  0  0
    3.1037   -1.1001    0.0000 C   0  0  0  0  0  0  0  0  0  0  0  0
    1.2046   -4.3692    0.0000 O   0  0  0  0  0  0  0  0  0  0  0  0
    0.9324   -5.1480    0.0000 C   0  0  0  0  0  0  0  0  0  0  0  0
    1.4709   -5.7731    0.0000 O   0  0  0  0  0  0  0  0  0  0  0  0
    0.1219   -5.3017    0.0000 C   0  0  0  0  0  0  0  0  0  0  0  0
   -0.1503   -6.0805    0.0000 C   0  0  0  0  0  0  0  0  0  0  0  0
   -0.9608   -6.2343    0.0000 C   0  0  0  0  0  0  0  0  0  0  0  0
   -1.2329   -7.0131    0.0000 O   0  0  0  0  0  0  0  0  0  0  0  0
   -2.0435   -7.1668    0.0000 C   0  0  0  0  0  0  0  0  0  0  0  0
   -1.4992   -5.6092    0.0000 C   0  0  0  0  0  0  0  0  0  0  0  0
   -2.3098   -5.7629    0.0000 O   0  0  0  0  0  0  0  0  0  0  0  0
   -2.5819   -6.5417    0.0000 C   0  0  0  0  0  0  0  0  0  0  0  0
   -1.2271   -4.8303    0.0000 C   0  0  0  0  0  0  0  0  0  0  0  0
   -1.7655   -4.2052    0.0000 O   0  0  0  0  0  0  0  0  0  0  0  0
   -1.4933   -3.4264    0.0000 C   0  0  0  0  0  0  0  0  0  0  0  0
   -0.4165   -4.6766    0.0000 C   0  0  0  0  0  0  0  0  0  0  0  0
  1  2  1  0  0  0  0
  2  3  1  0  0  0  0
  3  4  1  0  0  0  0
  3 25  1  0  0  0  0
  4  5  1  0  0  0  0
  4 30  1  0  0  0  0
  5  6  1  0  0  0  0
  6  7  1  0  0  0  0
  6 24  1  0  0  0  0
  7  8  1  0  0  0  0
  8  9  1  0  0  0  0
  8 22  1  0  0  0  0
  9 10  1  0  0  0  0
 10 11  1  0  0  0  0
 11 12  2  0  0  0  0
 11 21  1  0  0  0  0
 12 13  1  0  0  0  0
 12 22  1  0  0  0  0
 13 14  1  0  0  0  0
 14 15  2  0  0  0  0
 14 21  1  0  0  0  0
 15 16  1  0  0  0  0
 16 17  1  0  0  0  0
 16 19  2  0  0  0  0
 17 18  1  0  0  0  0
 19 20  1  0  0  0  0
 20 21  2  0  0  0  0
 22 23  1  0  0  0  0
 23 24  1  0  0  0  0
 24 25  1  0  0  0  0
 25 26  1  0  0  0  0
 26 27  2  0  0  0  0
 26 28  1  0  0  0  0
 28 29  1  0  0  0  0
 30 31  1  0  0  0  0
 31 32  2  0  0  0  0
 31 33  1  0  0  0  0
 33 34  2  0  0  0  0
 33 44  1  0  0  0  0
 34 35  1  0  0  0  0
 35 36  1  0  0  0  0
 35 38  2  0  0  0  0
 36 37  1  0  0  0  0
 38 39  1  0  0  0  0
 38 41  1  0  0  0  0
 39 40  1  0  0  0  0
 41 42  1  0  0  0  0
 41 44  2  0  0  0  0
 42 43  1  0  0  0  0
M  END
$$$$

 OpenBabel12191814062D

 27 29  0  0  0  0  0  0  0  0999 V2000
    2.1434   -2.8875    0.0000 C   0  0  0  0  0  0  0  0  0  0  0  0
    1.4289   -2.4750    0.0000 O   0  0  0  0  0  0  0  0  0  0  0  0
    1.4289   -1.6500    0.0000 C   0  0  0  0  0  0  0  0  0  0  0  0
    0.7145   -1.2375    0.0000 C   0  0  0  0  0  0  0  0  0  0  0  0
    0.0000   -1.6500    0.0000 O   0  0  0  0  0  0  0  0  0  0  0  0
    0.0000   -2.4750    0.0000 C   0  0  0  0  0  0  0  0  0  0  0  0
    0.7145   -2.8875    0.0000 C   0  0  0  0  0  0  0  0  0  0  0  0
   -0.7145   -2.8875    0.0000 O   0  0  0  0  0  0  0  0  0  0  0  0
    0.7145   -0.4125    0.0000 C   0  0  0  0  0  0  0  0  0  0  0  0
    0.0000    0.0000    0.0000 O   0  0  0  0  0  0  0  0  0  0  0  0
   -0.7145   -0.4125    0.0000 C   0  0  0  0  0  0  0  0  0  0  0  0
   -1.4289    0.0000    0.0000 C   0  0  0  0  0  0  0  0  0  0  0  0
   -0.7145   -1.2375    0.0000 O   0  0  0  0  0  0  0  0  0  0  0  0
    1.4289    0.0000    0.0000 C   0  0  0  0  0  0  0  0  0  0  0  0
    2.1434   -0.4125    0.0000 C   0  0  0  0  0  0  0  0  0  0  0  0
    2.8579    0.0000    0.0000 O   0  0  0  0  0  0  0  0  0  0  0  0
    3.5724   -0.4125    0.0000 C   0  0  0  0  0  0  0  0  0  0  0  0
    3.5724   -1.2375    0.0000 C   0  0  0  0  0  0  0  0  0  0  0  0
    2.8579   -1.6500    0.0000 C   0  0  0  0  0  0  0  0  0  0  0  0
    2.8579   -2.4750    0.0000 O   0  0  0  0  0  0  0  0  0  0  0  0
    2.1434   -1.2375    0.0000 C   0  0  0  0  0  0  0  0  0  0  0  0
    4.2868   -0.0000    0.0000 C   0  0  0  0  0  0  0  0  0  0  0  0
    4.2868    0.8250    0.0000 C   0  0  0  0  0  0  0  0  0  0  0  0
    5.0013    1.2375    0.0000 C   0  0  0  0  0  0  0  0  0  0  0  0
    5.7158    0.8250    0.0000 C   0  0  0  0  0  0  0  0  0  0  0  0
    5.7158   -0.0000    0.0000 C   0  0  0  0  0  0  0  0  0  0  0  0
    5.0013   -0.4125    0.0000 C   0  0  0  0  0  0  0  0  0  0  0  0
  1  2  1  0  0  0  0
  2  3  1  0  0  0  0
  3  4  2  0  0  0  0
  3 21  1  0  0  0  0
  4  5  1  0  0  0  0
  4  9  1  0  0  0  0
  5  6  1  0  0  0  0
  6  7  1  0  0  0  0
  6  8  2  0  0  0  0
  9 10  1  0  0  0  0
  9 14  2  0  0  0  0
 10 11  1  0  0  0  0
 11 12  1  0  0  0  0
 11 13  2  0  0  0  0
 14 15  1  0  0  0  0
 15 16  1  0  0  0  0
 15 21  2  0  0  0  0
 16 17  1  0  0  0  0
 17 18  2  0  0  0  0
 17 22  1  0  0  0  0
 18 19  1  0  0  0  0
 19 20  2  0  0  0  0
 19 21  1  0  0  0  0
 22 23  2  0  0  0  0
 22 27  1  0  0  0  0
 23 24  1  0  0  0  0
 24 25  2  0  0  0  0
 25 26  1  0  0  0  0
 26 27  2  0  0  0  0
M  END
$$$$

 OpenBabel12191814062D

 34 39  0  0  0  0  0  0  0  0999 V2000
    2.8579    2.4750    0.0000 C   0  0  0  0  0  0  0  0  0  0  0  0
    2.1434    2.0625    0.0000 O   0  0  0  0  0  0  0  0  0  0  0  0
    2.1434    1.2375    0.0000 C   0  0  0  0  0  0  0  0  0  0  0  0
    2.8579    0.8250    0.0000 C   0  0  0  0  0  0  0  0  0  0  0  0
    3.6425    1.0799    0.0000 O   0  0  0  0  0  0  0  0  0  0  0  0
    4.1274    0.4125    0.0000 C   0  0  0  0  0  0  0  0  0  0  0  0
    3.6425   -0.2549    0.0000 O   0  0  0  0  0  0  0  0  0  0  0  0
    2.8579    0.0000    0.0000 C   0  0  0  0  0  0  0  0  0  0  0  0
    2.1434   -0.4125    0.0000 C   0  0  0  0  0  0  0  0  0  0  0  0
    1.4289    0.0000    0.0000 C   0  0  0  0  0  0  0  0  0  0  0  0
    0.7145   -0.4125    0.0000 O   0  0  0  0  0  0  0  0  0  0  0  0
    0.0000    0.0000    0.0000 C   0  0  0  0  0  0  0  0  0  0  0  0
    0.0000    0.8250    0.0000 C   0  0  0  0  0  0  0  0  0  0  0  0
    0.7145    1.2375    0.0000 C   0  0  0  0  0  0  0  0  0  0  0  0
    0.7145    2.0625    0.0000 O   0  0  0  0  0  0  0  0  0  0  0  0
    1.4289    0.8250    0.0000 C   0  0  0  0  0  0  0  0  0  0  0  0
   -0.7145   -0.4125    0.0000 C   0  0  0  0  0  0  0  0  0  0  0  0
   -0.7145   -1.2375    0.0000 C   0  0  0  0  0  0  0  0  0  0  0  0
   -1.4289   -1.6500    0.0000 C   0  0  0  0  0  0  0  0  0  0  0  0
   -2.1434   -1.2375    0.0000 C   0  0  0  0  0  0  0  0  0  0  0  0
   -2.1434   -0.4125    0.0000 C   0  0  0  0  0  0  0  0  0  0  0  0
   -1.4289    0.0000    0.0000 C   0  0  0  0  0  0  0  0  0  0  0  0
    4.6859   -0.1948    0.0000 C   0  0  0  0  0  0  0  0  0  0  0  0
    5.4910   -0.0148    0.0000 C   0  0  0  0  0  0  0  0  0  0  0  0
    6.0494   -0.6221    0.0000 C   0  0  0  0  0  0  0  0  0  0  0  0
    5.8027   -1.4093    0.0000 C   0  0  0  0  0  0  0  0  0  0  0  0
    4.9976   -1.5893    0.0000 C   0  0  0  0  0  0  0  0  0  0  0  0
    4.4391   -0.9820    0.0000 C   0  0  0  0  0  0  0  0  0  0  0  0
    4.8462    0.8175    0.0000 C   0  0  0  0  0  0  0  0  0  0  0  0
    4.8548    1.6425    0.0000 C   0  0  0  0  0  0  0  0  0  0  0  0
    5.5736    2.0474    0.0000 C   0  0  0  0  0  0  0  0  0  0  0  0
    6.2837    1.6275    0.0000 C   0  0  0  0  0  0  0  0  0  0  0  0
    6.2750    0.8025    0.0000 C   0  0  0  0  0  0  0  0  0  0  0  0
    5.5563    0.3975    0.0000 C   0  0  0  0  0  0  0  0  0  0  0  0
  1  2  1  0  0  0  0
  2  3  1  0  0  0  0
  3  4  2  0  0  0  0
  3 16  1  0  0  0  0
  4  5  1  0  0  0  0
  4  8  1  0  0  0  0
  5  6  1  0  0  0  0
  6  7  1  0  0  0  0
  6 23  1  0  0  0  0
  6 29  1  0  0  0  0
  7  8  1  0  0  0  0
  8  9  2  0  0  0  0
  9 10  1  0  0  0  0
 10 11  1  0  0  0  0
 10 16  2  0  0  0  0
 11 12  1  0  0  0  0
 12 13  2  0  0  0  0
 12 17  1  0  0  0  0
 13 14  1  0  0  0  0
 14 15  2  0  0  0  0
 14 16  1  0  0  0  0
 17 18  2  0  0  0  0
 17 22  1  0  0  0  0
 18 19  1  0  0  0  0
 19 20  2  0  0  0  0
 20 21  1  0  0  0  0
 21 22  2  0  0  0  0
 23 24  2  0  0  0  0
 23 28  1  0  0  0  0
 24 25  1  0  0  0  0
 25 26  2  0  0  0  0
 26 27  1  0  0  0  0
 27 28  2  0  0  0  0
 29 30  2  0  0  0  0
 29 34  1  0  0  0  0
 30 31  1  0  0  0  0
 31 32  2  0  0  0  0
 32 33  1  0  0  0  0
 33 34  2  0  0  0  0
M  END
$$$$

 OpenBabel12191814062D

 22 25  0  0  0  0  0  0  0  0999 V2000
    2.8579    2.4750    0.0000 C   0  0  0  0  0  0  0  0  0  0  0  0
    2.1434    2.0625    0.0000 O   0  0  0  0  0  0  0  0  0  0  0  0
    2.1434    1.2375    0.0000 C   0  0  0  0  0  0  0  0  0  0  0  0
    2.8579    0.8250    0.0000 C   0  0  0  0  0  0  0  0  0  0  0  0
    3.6425    1.0799    0.0000 O   0  0  0  0  0  0  0  0  0  0  0  0
    4.1274    0.4125    0.0000 C   0  0  0  0  0  0  0  0  0  0  0  0
    3.6425   -0.2549    0.0000 O   0  0  0  0  0  0  0  0  0  0  0  0
    2.8579    0.0000    0.0000 C   0  0  0  0  0  0  0  0  0  0  0  0
    2.1434   -0.4125    0.0000 C   0  0  0  0  0  0  0  0  0  0  0  0
    1.4289    0.0000    0.0000 C   0  0  0  0  0  0  0  0  0  0  0  0
    0.7145   -0.4125    0.0000 O   0  0  0  0  0  0  0  0  0  0  0  0
    0.0000    0.0000    0.0000 C   0  0  0  0  0  0  0  0  0  0  0  0
    0.0000    0.8250    0.0000 C   0  0  0  0  0  0  0  0  0  0  0  0
    0.7145    1.2375    0.0000 C   0  0  0  0  0  0  0  0  0  0  0  0
    0.7145    2.0625    0.0000 O   0  0  0  0  0  0  0  0  0  0  0  0
    1.4289    0.8250    0.0000 C   0  0  0  0  0  0  0  0  0  0  0  0
   -0.7145   -0.4125    0.0000 C   0  0  0  0  0  0  0  0  0  0  0  0
   -0.7145   -1.2375    0.0000 C   0  0  0  0  0  0  0  0  0  0  0  0
   -1.4289   -1.6500    0.0000 C   0  0  0  0  0  0  0  0  0  0  0  0
   -2.1434   -1.2375    0.0000 C   0  0  0  0  0  0  0  0  0  0  0  0
   -2.1434   -0.4125    0.0000 C   0  0  0  0  0  0  0  0  0  0  0  0
   -1.4289    0.0000    0.0000 C   0  0  0  0  0  0  0  0  0  0  0  0
  1  2  1  0  0  0  0
  2  3  1  0  0  0  0
  3  4  2  0  0  0  0
  3 16  1  0  0  0  0
  4  5  1  0  0  0  0
  4  8  1  0  0  0  0
  5  6  1  0  0  0  0
  6  7  1  0  0  0  0
  7  8  1  0  0  0  0
  8  9  2  0  0  0  0
  9 10  1  0  0  0  0
 10 11  1  0  0  0  0
 10 16  2  0  0  0  0
 11 12  1  0  0  0  0
 12 13  2  0  0  0  0
 12 17  1  0  0  0  0
 13 14  1  0  0  0  0
 14 15  2  0  0  0  0
 14 16  1  0  0  0  0
 17 18  2  0  0  0  0
 17 22  1  0  0  0  0
 18 19  1  0  0  0  0
 19 20  2  0  0  0  0
 20 21  1  0  0  0  0
 21 22  2  0  0  0  0
M  END
$$$$

 OpenBabel12191814062D

 46 49  0  0  0  0  0  0  0  0999 V2000
   -8.5737    2.4750    0.0000 C   0  0  0  0  0  0  0  0  0  0  0  0
   -7.8592    2.0625    0.0000 O   0  0  0  0  0  0  0  0  0  0  0  0
   -7.8592    1.2375    0.0000 C   0  0  0  0  0  0  0  0  0  0  0  0
   -7.1447    0.8250    0.0000 C   0  0  0  0  0  0  0  0  0  0  0  0
   -7.1447   -0.0000    0.0000 C   0  0  0  0  0  0  0  0  0  0  0  0
   -6.4302   -0.4125    0.0000 C   0  0  0  0  0  0  0  0  0  0  0  0
   -5.7158   -0.0000    0.0000 C   0  0  0  0  0  0  0  0  0  0  0  0
   -5.7158    0.8250    0.0000 C   0  0  0  0  0  0  0  0  0  0  0  0
   -6.4302    1.2375    0.0000 O   0  0  0  0  0  0  0  0  0  0  0  0
   -5.0013    1.2375    0.0000 O   0  0  0  0  0  0  0  0  0  0  0  0
   -5.0013    2.0625    0.0000 C   0  0  3  0  0  0  0  0  0  0  0  0
   -5.7158    2.4750    0.0000 C   0  0  0  0  0  0  0  0  0  0  0  0
   -5.7158    3.3000    0.0000 C   0  0  0  0  0  0  0  0  0  0  0  0
   -5.0013    3.7125    0.0000 C   0  0  3  0  0  0  0  0  0  0  0  0
   -4.2868    3.3000    0.0000 C   0  0  0  0  0  0  0  0  0  0  0  0
   -4.2868    2.4750    0.0000 C   0  0  0  0  0  0  0  0  0  0  0  0
   -5.0013    4.5375    0.0000 N   0  0  0  0  0  0  0  0  0  0  0  0
   -5.7158    4.9500    0.0000 C   0  0  0  0  0  0  0  0  0  0  0  0
   -4.2868    4.9500    0.0000 C   0  0  3  0  0  0  0  0  0  0  0  0
   -4.2868    5.7750    0.0000 C   0  0  0  0  0  0  0  0  0  0  0  0
   -3.5724    6.1875    0.0000 C   0  0  0  0  0  0  0  0  0  0  0  0
   -2.8579    5.7750    0.0000 C   0  0  3  0  0  0  0  0  0  0  0  0
   -2.8579    4.9500    0.0000 C   0  0  0  0  0  0  0  0  0  0  0  0
   -3.5724    4.5375    0.0000 C   0  0  0  0  0  0  0  0  0  0  0  0
   -2.1434    6.1875    0.0000 O   0  0  0  0  0  0  0  0  0  0  0  0
   -2.1434    7.0125    0.0000 C   0  0  0  0  0  0  0  0  0  0  0  0
   -1.4289    7.4250    0.0000 O   0  0  0  0  0  0  0  0  0  0  0  0
   -2.8579    7.4250    0.0000 C   0  0  0  0  0  0  0  0  0  0  0  0
   -3.5724    7.0125    0.0000 C   0  0  0  0  0  0  0  0  0  0  0  0
   -4.2868    7.4250    0.0000 C   0  0  0  0  0  0  0  0  0  0  0  0
   -5.0013    7.0125    0.0000 O   0  0  0  0  0  0  0  0  0  0  0  0
   -5.7158    7.4250    0.0000 C   0  0  0  0  0  0  0  0  0  0  0  0
   -4.2868    8.2500    0.0000 C   0  0  0  0  0  0  0  0  0  0  0  0
   -5.0013    8.6625    0.0000 O   0  0  0  0  0  0  0  0  0  0  0  0
   -5.0013    9.4875    0.0000 C   0  0  0  0  0  0  0  0  0  0  0  0
   -3.5724    8.6625    0.0000 C   0  0  0  0  0  0  0  0  0  0  0  0
   -3.5724    9.4875    0.0000 O   0  0  0  0  0  0  0  0  0  0  0  0
   -2.8579    9.9000    0.0000 C   0  0  0  0  0  0  0  0  0  0  0  0
   -2.8579    8.2500    0.0000 C   0  0  0  0  0  0  0  0  0  0  0  0
   -7.8592   -0.4125    0.0000 C   0  0  0  0  0  0  0  0  0  0  0  0
   -8.5737   -0.0000    0.0000 C   0  0  0  0  0  0  0  0  0  0  0  0
   -9.2881   -0.4125    0.0000 O   0  0  0  0  0  0  0  0  0  0  0  0
  -10.0026   -0.0000    0.0000 C   0  0  0  0  0  0  0  0  0  0  0  0
   -8.5737    0.8250    0.0000 C   0  0  0  0  0  0  0  0  0  0  0  0
   -9.2881    1.2375    0.0000 O   0  0  0  0  0  0  0  0  0  0  0  0
  -10.0026    0.8250    0.0000 C   0  0  0  0  0  0  0  0  0  0  0  0
  1  2  1  0  0  0  0
  2  3  1  0  0  0  0
  3  4  2  0  0  0  0
  3 44  1  0  0  0  0
  4  5  1  0  0  0  0
  5  6  1  0  0  0  0
  5 40  2  0  0  0  0
  6  7  2  0  0  0  0
  7  8  1  0  0  0  0
  8  9  2  0  0  0  0
  8 10  1  0  0  0  0
 10 11  1  0  0  0  0
 11 12  1  0  0  0  0
 11 16  1  0  0  0  0
 12 13  1  0  0  0  0
 13 14  1  0  0  0  0
 14 15  1  0  0  0  0
 14 17  1  0  0  0  0
 15 16  1  0  0  0  0
 17 18  1  0  0  0  0
 17 19  1  0  0  0  0
 19 20  1  0  0  0  0
 19 24  1  0  0  0  0
 20 21  1  0  0  0  0
 21 22  1  0  0  0  0
 22 23  1  0  0  0  0
 22 25  1  0  0  0  0
 23 24  1  0  0  0  0
 25 26  1  0  0  0  0
 26 27  2  0  0  0  0
 26 28  1  0  0  0  0
 28 29  2  0  0  0  0
 28 39  1  0  0  0  0
 29 30  1  0  0  0  0
 30 31  1  0  0  0  0
 30 33  2  0  0  0  0
 31 32  1  0  0  0  0
 33 34  1  0  0  0  0
 33 36  1  0  0  0  0
 34 35  1  0  0  0  0
 36 37  1  0  0  0  0
 36 39  2  0  0  0  0
 37 38  1  0  0  0  0
 40 41  1  0  0  0  0
 41 42  1  0  0  0  0
 41 44  2  0  0  0  0
 42 43  1  0  0  0  0
 44 45  1  0  0  0  0
 45 46  1  0  0  0  0
M  END
$$$$

 OpenBabel12191814062D

 40 43  0  0  0  0  0  0  0  0999 V2000
    2.8579  -11.5500    0.0000 C   0  0  0  0  0  0  0  0  0  0  0  0
    2.1434  -11.1375    0.0000 O   0  0  0  0  0  0  0  0  0  0  0  0
    2.1434  -10.3125    0.0000 C   0  0  0  0  0  0  0  0  0  0  0  0
    1.4289   -9.9000    0.0000 C   0  0  0  0  0  0  0  0  0  0  0  0
    1.4289   -9.0750    0.0000 C   0  0  0  0  0  0  0  0  0  0  0  0
    0.7145   -8.6625    0.0000 C   0  0  0  0  0  0  0  0  0  0  0  0
    0.7145   -7.8375    0.0000 C   0  0  0  0  0  0  0  0  0  0  0  0
    0.0000   -7.4250    0.0000 C   0  0  0  0  0  0  0  0  0  0  0  0
   -0.7145   -7.8375    0.0000 O   0  0  0  0  0  0  0  0  0  0  0  0
    0.0000   -6.6000    0.0000 N   0  0  0  0  0  0  0  0  0  0  0  0
   -0.7145   -6.1875    0.0000 C   0  0  0  0  0  0  0  0  0  0  0  0
   -0.7145   -5.3625    0.0000 C   0  0  0  0  0  0  0  0  0  0  0  0
    0.0000   -4.9500    0.0000 N   0  0  0  0  0  0  0  0  0  0  0  0
    0.0000   -4.1250    0.0000 C   0  0  0  0  0  0  0  0  0  0  0  0
    0.7145   -3.7125    0.0000 C   0  0  3  0  0  0  0  0  0  0  0  0
    1.4289   -4.1250    0.0000 O   0  0  0  0  0  0  0  0  0  0  0  0
    0.7145   -2.8875    0.0000 C   0  0  0  0  0  0  0  0  0  0  0  0
    1.4289   -2.4750    0.0000 O   0  0  0  0  0  0  0  0  0  0  0  0
    1.4289   -1.6500    0.0000 C   0  0  0  0  0  0  0  0  0  0  0  0
    0.7145   -1.2375    0.0000 C   0  0  0  0  0  0  0  0  0  0  0  0
    0.7145   -0.4125    0.0000 C   0  0  0  0  0  0  0  0  0  0  0  0
    1.4289    0.0000    0.0000 C   0  0  0  0  0  0  0  0  0  0  0  0
    1.4289    0.8250    0.0000 C   0  0  0  0  0  0  0  0  0  0  0  0
    2.1434    1.2375    0.0000 C   0  0  0  0  0  0  0  0  0  0  0  0
    0.7145    1.2375    0.0000 O   0  0  0  0  0  0  0  0  0  0  0  0
    2.1434   -0.4125    0.0000 C   0  0  0  0  0  0  0  0  0  0  0  0
    2.8579    0.0000    0.0000 O   0  0  0  0  0  0  0  0  0  0  0  0
    3.5724   -0.4125    0.0000 C   0  0  0  0  0  0  0  0  0  0  0  0
    3.5724   -1.2375    0.0000 C   0  0  0  0  0  0  0  0  0  0  0  0
    2.8579   -1.6500    0.0000 O   0  0  0  0  0  0  0  0  0  0  0  0
    2.1434   -1.2375    0.0000 C   0  0  0  0  0  0  0  0  0  0  0  0
    0.7145   -5.3625    0.0000 C   0  0  0  0  0  0  0  0  0  0  0  0
    0.7145   -6.1875    0.0000 C   0  0  0  0  0  0  0  0  0  0  0  0
    2.1434   -8.6625    0.0000 C   0  0  0  0  0  0  0  0  0  0  0  0
    2.8579   -9.0750    0.0000 C   0  0  0  0  0  0  0  0  0  0  0  0
    3.5724   -8.6625    0.0000 O   0  0  0  0  0  0  0  0  0  0  0  0
    4.2868   -9.0750    0.0000 C   0  0  0  0  0  0  0  0  0  0  0  0
    2.8579   -9.9000    0.0000 C   0  0  0  0  0  0  0  0  0  0  0  0
    3.5724  -10.3125    0.0000 O   0  0  0  0  0  0  0  0  0  0  0  0
    3.5724  -11.1375    0.0000 C   0  0  0  0  0  0  0  0  0  0  0  0
  1  2  1  0  0  0  0
  2  3  1  0  0  0  0
  3  4  2  0  0  0  0
  3 38  1  0  0  0  0
  4  5  1  0  0  0  0
  5  6  1  0  0  0  0
  5 34  2  0  0  0  0
  6  7  2  0  0  0  0
  7  8  1  0  0  0  0
  8  9  2  0  0  0  0
  8 10  1  0  0  0  0
 10 11  1  0  0  0  0
 10 33  1  0  0  0  0
 11 12  1  0  0  0  0
 12 13  1  0  0  0  0
 13 14  1  0  0  0  0
 13 32  1  0  0  0  0
 14 15  1  0  0  0  0
 15 16  1  0  0  0  0
 15 17  1  0  0  0  0
 17 18  1  0  0  0  0
 18 19  1  0  0  0  0
 19 20  2  0  0  0  0
 19 31  1  0  0  0  0
 20 21  1  0  0  0  0
 21 22  2  0  0  0  0
 22 23  1  0  0  0  0
 22 26  1  0  0  0  0
 23 24  1  0  0  0  0
 23 25  2  0  0  0  0
 26 27  1  0  0  0  0
 26 31  2  0  0  0  0
 27 28  1  0  0  0  0
 28 29  1  0  0  0  0
 29 30  1  0  0  0  0
 30 31  1  0  0  0  0
 32 33  1  0  0  0  0
 34 35  1  0  0  0  0
 35 36  1  0  0  0  0
 35 38  2  0  0  0  0
 36 37  1  0  0  0  0
 38 39  1  0  0  0  0
 39 40  1  0  0  0  0
M  END
$$$$

 OpenBabel12191814062D

 42 44  0  0  0  0  0  0  0  0999 V2000
    0.0000  -11.5500    0.0000 C   0  0  0  0  0  0  0  0  0  0  0  0
    0.7145  -11.1375    0.0000 O   0  0  0  0  0  0  0  0  0  0  0  0
    1.4289  -11.5500    0.0000 C   0  0  0  0  0  0  0  0  0  0  0  0
    2.1434  -11.1375    0.0000 C   0  0  0  0  0  0  0  0  0  0  0  0
    2.8579  -11.5500    0.0000 C   0  0  0  0  0  0  0  0  0  0  0  0
    3.5724  -11.1375    0.0000 C   0  0  0  0  0  0  0  0  0  0  0  0
    4.2868  -11.5500    0.0000 C   0  0  0  0  0  0  0  0  0  0  0  0
    5.0013  -11.1375    0.0000 C   0  0  0  0  0  0  0  0  0  0  0  0
    5.0013  -10.3125    0.0000 O   0  0  0  0  0  0  0  0  0  0  0  0
    5.7158  -11.5500    0.0000 O   0  0  0  0  0  0  0  0  0  0  0  0
    6.4302  -11.1375    0.0000 C   0  0  0  0  0  0  0  0  0  0  0  0
    7.1447  -11.5500    0.0000 C   0  0  0  0  0  0  0  0  0  0  0  0
    7.8592  -11.1375    0.0000 C   0  0  0  0  0  0  0  0  0  0  0  0
    8.5737  -11.5500    0.0000 N   0  0  0  0  0  0  0  0  0  0  0  0
    8.5737  -12.3750    0.0000 C   0  0  0  0  0  0  0  0  0  0  0  0
    9.2881  -11.1375    0.0000 C   0  0  0  0  0  0  0  0  0  0  0  0
   10.0026  -11.5500    0.0000 C   0  0  0  0  0  0  0  0  0  0  0  0
   10.7171  -11.1375    0.0000 C   0  0  0  0  0  0  0  0  0  0  0  0
   11.4315  -11.5500    0.0000 O   0  0  0  0  0  0  0  0  0  0  0  0
   12.1460  -11.1375    0.0000 C   0  0  0  0  0  0  0  0  0  0  0  0
   12.1460  -10.3125    0.0000 O   0  0  0  0  0  0  0  0  0  0  0  0
   12.8605  -11.5500    0.0000 C   0  0  0  0  0  0  0  0  0  0  0  0
   13.5749  -11.1375    0.0000 C   0  0  0  0  0  0  0  0  0  0  0  0
   14.2894  -11.5500    0.0000 C   0  0  0  0  0  0  0  0  0  0  0  0
   15.0039  -11.1375    0.0000 C   0  0  0  0  0  0  0  0  0  0  0  0
   15.7184  -11.5500    0.0000 C   0  0  0  0  0  0  0  0  0  0  0  0
   15.7184  -12.3750    0.0000 C   0  0  0  0  0  0  0  0  0  0  0  0
   15.0039  -12.7875    0.0000 C   0  0  0  0  0  0  0  0  0  0  0  0
   14.2894  -12.3750    0.0000 C   0  0  0  0  0  0  0  0  0  0  0  0
   16.4328  -12.7875    0.0000 C   0  0  0  0  0  0  0  0  0  0  0  0
   17.1473  -12.3750    0.0000 C   0  0  0  0  0  0  0  0  0  0  0  0
   17.8618  -12.7875    0.0000 C   0  0  0  0  0  0  0  0  0  0  0  0
   17.8618  -13.6125    0.0000 C   0  0  0  0  0  0  0  0  0  0  0  0
   17.1473  -14.0250    0.0000 C   0  0  0  0  0  0  0  0  0  0  0  0
   16.4328  -13.6125    0.0000 C   0  0  0  0  0  0  0  0  0  0  0  0
    2.8579  -12.3750    0.0000 C   0  0  0  0  0  0  0  0  0  0  0  0
    2.1434  -12.7875    0.0000 C   0  0  0  0  0  0  0  0  0  0  0  0
    2.1434  -13.6125    0.0000 O   0  0  0  0  0  0  0  0  0  0  0  0
    1.4289  -14.0250    0.0000 C   0  0  0  0  0  0  0  0  0  0  0  0
    1.4289  -12.3750    0.0000 C   0  0  0  0  0  0  0  0  0  0  0  0
    0.7145  -12.7875    0.0000 O   0  0  0  0  0  0  0  0  0  0  0  0
    0.7145  -13.6125    0.0000 C   0  0  0  0  0  0  0  0  0  0  0  0
  1  2  1  0  0  0  0
  2  3  1  0  0  0  0
  3  4  2  0  0  0  0
  3 40  1  0  0  0  0
  4  5  1  0  0  0  0
  5  6  1  0  0  0  0
  5 36  2  0  0  0  0
  6  7  2  0  0  0  0
  7  8  1  0  0  0  0
  8  9  2  0  0  0  0
  8 10  1  0  0  0  0
 10 11  1  0  0  0  0
 11 12  1  0  0  0  0
 12 13  1  0  0  0  0
 13 14  1  0  0  0  0
 14 15  1  0  0  0  0
 14 16  1  0  0  0  0
 16 17  1  0  0  0  0
 17 18  1  0  0  0  0
 18 19  1  0  0  0  0
 19 20  1  0  0  0  0
 20 21  2  0  0  0  0
 20 22  1  0  0  0  0
 22 23  2  0  0  0  0
 23 24  1  0  0  0  0
 24 25  2  0  0  0  0
 24 29  1  0  0  0  0
 25 26  1  0  0  0  0
 26 27  2  0  0  0  0
 27 28  1  0  0  0  0
 27 30  1  0  0  0  0
 28 29  2  0  0  0  0
 30 31  2  0  0  0  0
 30 35  1  0  0  0  0
 31 32  1  0  0  0  0
 32 33  2  0  0  0  0
 33 34  1  0  0  0  0
 34 35  2  0  0  0  0
 36 37  1  0  0  0  0
 37 38  1  0  0  0  0
 37 40  2  0  0  0  0
 38 39  1  0  0  0  0
 40 41  1  0  0  0  0
 41 42  1  0  0  0  0
M  END
$$$$

 OpenBabel12191814062D

 42 44  0  0  0  0  0  0  0  0999 V2000
  -12.8605   -1.6500    0.0000 C   0  0  0  0  0  0  0  0  0  0  0  0
  -12.1460   -1.2375    0.0000 O   0  0  0  0  0  0  0  0  0  0  0  0
  -11.4315   -1.6500    0.0000 C   0  0  0  0  0  0  0  0  0  0  0  0
  -10.7171   -1.2375    0.0000 C   0  0  0  0  0  0  0  0  0  0  0  0
  -10.0026   -1.6500    0.0000 C   0  0  0  0  0  0  0  0  0  0  0  0
   -9.2881   -1.2375    0.0000 C   0  0  0  0  0  0  0  0  0  0  0  0
   -8.5737   -1.6500    0.0000 C   0  0  0  0  0  0  0  0  0  0  0  0
   -7.8592   -1.2375    0.0000 C   0  0  0  0  0  0  0  0  0  0  0  0
   -7.8592   -0.4125    0.0000 O   0  0  0  0  0  0  0  0  0  0  0  0
   -7.1447   -1.6500    0.0000 O   0  0  0  0  0  0  0  0  0  0  0  0
   -6.4302   -1.2375    0.0000 C   0  0  0  0  0  0  0  0  0  0  0  0
   -5.7158   -1.6500    0.0000 C   0  0  0  0  0  0  0  0  0  0  0  0
   -5.0013   -1.2375    0.0000 C   0  0  0  0  0  0  0  0  0  0  0  0
   -4.2868   -1.6500    0.0000 N   0  0  0  0  0  0  0  0  0  0  0  0
   -4.2868   -2.4750    0.0000 C   0  0  0  0  0  0  0  0  0  0  0  0
   -3.5724   -1.2375    0.0000 C   0  0  0  0  0  0  0  0  0  0  0  0
   -2.8579   -1.6500    0.0000 C   0  0  0  0  0  0  0  0  0  0  0  0
   -2.1434   -1.2375    0.0000 C   0  0  0  0  0  0  0  0  0  0  0  0
   -1.4289   -1.6500    0.0000 O   0  0  0  0  0  0  0  0  0  0  0  0
   -0.7145   -1.2375    0.0000 C   0  0  0  0  0  0  0  0  0  0  0  0
   -0.7145   -0.4125    0.0000 O   0  0  0  0  0  0  0  0  0  0  0  0
    0.0000   -1.6500    0.0000 C   0  0  0  0  0  0  0  0  0  0  0  0
    0.7145   -1.2375    0.0000 C   0  0  0  0  0  0  0  0  0  0  0  0
    1.4289   -1.6500    0.0000 C   0  0  0  0  0  0  0  0  0  0  0  0
    2.1434   -1.2375    0.0000 C   0  0  0  0  0  0  0  0  0  0  0  0
    2.8579   -1.6500    0.0000 C   0  0  0  0  0  0  0  0  0  0  0  0
    2.8579   -2.4750    0.0000 C   0  0  0  0  0  0  0  0  0  0  0  0
    2.1434   -2.8875    0.0000 C   0  0  0  0  0  0  0  0  0  0  0  0
    1.4289   -2.4750    0.0000 C   0  0  0  0  0  0  0  0  0  0  0  0
    0.7145   -0.4125    0.0000 C   0  0  0  0  0  0  0  0  0  0  0  0
    0.0000   -0.0000    0.0000 C   0  0  0  0  0  0  0  0  0  0  0  0
    0.0000    0.8250    0.0000 C   0  0  0  0  0  0  0  0  0  0  0  0
    0.7145    1.2375    0.0000 C   0  0  0  0  0  0  0  0  0  0  0  0
    1.4289    0.8250    0.0000 C   0  0  0  0  0  0  0  0  0  0  0  0
    1.4289    0.0000    0.0000 C   0  0  0  0  0  0  0  0  0  0  0  0
  -10.0026   -2.4750    0.0000 C   0  0  0  0  0  0  0  0  0  0  0  0
  -10.7171   -2.8875    0.0000 C   0  0  0  0  0  0  0  0  0  0  0  0
  -10.7171   -3.7125    0.0000 O   0  0  0  0  0  0  0  0  0  0  0  0
  -11.4315   -4.1250    0.0000 C   0  0  0  0  0  0  0  0  0  0  0  0
  -11.4315   -2.4750    0.0000 C   0  0  0  0  0  0  0  0  0  0  0  0
  -12.1460   -2.8875    0.0000 O   0  0  0  0  0  0  0  0  0  0  0  0
  -12.1460   -3.7125    0.0000 C   0  0  0  0  0  0  0  0  0  0  0  0
  1  2  1  0  0  0  0
  2  3  1  0  0  0  0
  3  4  2  0  0  0  0
  3 40  1  0  0  0  0
  4  5  1  0  0  0  0
  5  6  1  0  0  0  0
  5 36  2  0  0  0  0
  6  7  2  0  0  0  0
  7  8  1  0  0  0  0
  8  9  2  0  0  0  0
  8 10  1  0  0  0  0
 10 11  1  0  0  0  0
 11 12  1  0  0  0  0
 12 13  1  0  0  0  0
 13 14  1  0  0  0  0
 14 15  1  0  0  0  0
 14 16  1  0  0  0  0
 16 17  1  0  0  0  0
 17 18  1  0  0  0  0
 18 19  1  0  0  0  0
 19 20  1  0  0  0  0
 20 21  2  0  0  0  0
 20 22  1  0  0  0  0
 22 23  2  0  0  0  0
 23 24  1  0  0  0  0
 23 30  1  0  0  0  0
 24 25  2  0  0  0  0
 24 29  1  0  0  0  0
 25 26  1  0  0  0  0
 26 27  2  0  0  0  0
 27 28  1  0  0  0  0
 28 29  2  0  0  0  0
 30 31  2  0  0  0  0
 30 35  1  0  0  0  0
 31 32  1  0  0  0  0
 32 33  2  0  0  0  0
 33 34  1  0  0  0  0
 34 35  2  0  0  0  0
 36 37  1  0  0  0  0
 37 38  1  0  0  0  0
 37 40  2  0  0  0  0
 38 39  1  0  0  0  0
 40 41  1  0  0  0  0
 41 42  1  0  0  0  0
M  END
$$$$

 OpenBabel12191814062D

 40 41  0  0  0  0  0  0  0  0999 V2000
   -0.7145   -7.8375    0.0000 C   0  0  0  0  0  0  0  0  0  0  0  0
    0.0000   -7.4250    0.0000 O   0  0  0  0  0  0  0  0  0  0  0  0
    0.7145   -7.8375    0.0000 C   0  0  0  0  0  0  0  0  0  0  0  0
    1.4289   -7.4250    0.0000 C   0  0  0  0  0  0  0  0  0  0  0  0
    2.1434   -7.8375    0.0000 C   0  0  0  0  0  0  0  0  0  0  0  0
    2.8579   -7.4250    0.0000 C   0  0  0  0  0  0  0  0  0  0  0  0
    3.5724   -7.8375    0.0000 C   0  0  0  0  0  0  0  0  0  0  0  0
    4.2868   -7.4250    0.0000 C   0  0  0  0  0  0  0  0  0  0  0  0
    4.2868   -6.6000    0.0000 O   0  0  0  0  0  0  0  0  0  0  0  0
    5.0013   -7.8375    0.0000 O   0  0  0  0  0  0  0  0  0  0  0  0
    5.7158   -7.4250    0.0000 C   0  0  0  0  0  0  0  0  0  0  0  0
    6.4302   -7.8375    0.0000 C   0  0  0  0  0  0  0  0  0  0  0  0
    7.1447   -7.4250    0.0000 C   0  0  0  0  0  0  0  0  0  0  0  0
    7.8592   -7.8375    0.0000 N   0  0  0  0  0  0  0  0  0  0  0  0
    7.8592   -8.6625    0.0000 C   0  0  0  0  0  0  0  0  0  0  0  0
    8.5737   -7.4250    0.0000 C   0  0  0  0  0  0  0  0  0  0  0  0
    9.2881   -7.8375    0.0000 C   0  0  0  0  0  0  0  0  0  0  0  0
   10.0026   -7.4250    0.0000 C   0  0  0  0  0  0  0  0  0  0  0  0
   10.7171   -7.8375    0.0000 O   0  0  0  0  0  0  0  0  0  0  0  0
   11.4315   -7.4250    0.0000 C   0  0  0  0  0  0  0  0  0  0  0  0
   11.4315   -6.6000    0.0000 O   0  0  0  0  0  0  0  0  0  0  0  0
   12.1460   -7.8375    0.0000 C   0  0  0  0  0  0  0  0  0  0  0  0
   12.8605   -7.4250    0.0000 C   0  0  0  0  0  0  0  0  0  0  0  0
   13.5749   -7.8375    0.0000 C   0  0  0  0  0  0  0  0  0  0  0  0
   14.2894   -7.4250    0.0000 O   0  0  0  0  0  0  0  0  0  0  0  0
   15.0039   -7.8375    0.0000 C   0  0  0  0  0  0  0  0  0  0  0  0
   13.5749   -8.6625    0.0000 C   0  0  0  0  0  0  0  0  0  0  0  0
   14.2894   -9.0750    0.0000 O   0  0  0  0  0  0  0  0  0  0  0  0
   14.2894   -9.9000    0.0000 C   0  0  0  0  0  0  0  0  0  0  0  0
   12.8605   -9.0750    0.0000 C   0  0  0  0  0  0  0  0  0  0  0  0
   12.8605   -9.9000    0.0000 O   0  0  0  0  0  0  0  0  0  0  0  0
   12.1460  -10.3125    0.0000 C   0  0  0  0  0  0  0  0  0  0  0  0
   12.1460   -8.6625    0.0000 C   0  0  0  0  0  0  0  0  0  0  0  0
    2.1434   -8.6625    0.0000 C   0  0  0  0  0  0  0  0  0  0  0  0
    1.4289   -9.0750    0.0000 C   0  0  0  0  0  0  0  0  0  0  0  0
    1.4289   -9.9000    0.0000 O   0  0  0  0  0  0  0  0  0  0  0  0
    0.7145  -10.3125    0.0000 C   0  0  0  0  0  0  0  0  0  0  0  0
    0.7145   -8.6625    0.0000 C   0  0  0  0  0  0  0  0  0  0  0  0
    0.0000   -9.0750    0.0000 O   0  0  0  0  0  0  0  0  0  0  0  0
    0.0000   -9.9000    0.0000 C   0  0  0  0  0  0  0  0  0  0  0  0
  1  2  1  0  0  0  0
  2  3  1  0  0  0  0
  3  4  2  0  0  0  0
  3 38  1  0  0  0  0
  4  5  1  0  0  0  0
  5  6  1  0  0  0  0
  5 34  2  0  0  0  0
  6  7  2  0  0  0  0
  7  8  1  0  0  0  0
  8  9  2  0  0  0  0
  8 10  1  0  0  0  0
 10 11  1  0  0  0  0
 11 12  1  0  0  0  0
 12 13  1  0  0  0  0
 13 14  1  0  0  0  0
 14 15  1  0  0  0  0
 14 16  1  0  0  0  0
 16 17  1  0  0  0  0
 17 18  1  0  0  0  0
 18 19  1  0  0  0  0
 19 20  1  0  0  0  0
 20 21  2  0  0  0  0
 20 22  1  0  0  0  0
 22 23  2  0  0  0  0
 22 33  1  0  0  0  0
 23 24  1  0  0  0  0
 24 25  1  0  0  0  0
 24 27  2  0  0  0  0
 25 26  1  0  0  0  0
 27 28  1  0  0  0  0
 27 30  1  0  0  0  0
 28 29  1  0  0  0  0
 30 31  1  0  0  0  0
 30 33  2  0  0  0  0
 31 32  1  0  0  0  0
 34 35  1  0  0  0  0
 35 36  1  0  0  0  0
 35 38  2  0  0  0  0
 36 37  1  0  0  0  0
 38 39  1  0  0  0  0
 39 40  1  0  0  0  0
M  END
$$$$

 OpenBabel12191814062D

 27 29  0  0  0  0  0  0  0  0999 V2000
   -1.4289   -4.9500    0.0000 C   0  0  0  0  0  0  0  0  0  0  0  0
   -1.4289   -4.1250    0.0000 O   0  0  0  0  0  0  0  0  0  0  0  0
   -0.7145   -3.7125    0.0000 C   0  0  0  0  0  0  0  0  0  0  0  0
    0.0000   -4.1250    0.0000 C   0  0  0  0  0  0  0  0  0  0  0  0
    0.7145   -3.7125    0.0000 C   0  0  0  0  0  0  0  0  0  0  0  0
    1.4289   -4.1250    0.0000 Br  0  0  0  0  0  0  0  0  0  0  0  0
    0.7145   -2.8875    0.0000 C   0  0  0  0  0  0  0  0  0  0  0  0
    1.4289   -2.4750    0.0000 C   0  0  0  0  0  0  0  0  0  0  0  0
    1.4289   -1.6500    0.0000 C   0  0  3  0  0  0  0  0  0  0  0  0
    0.7145   -1.2375    0.0000 N   0  0  0  0  0  0  0  0  0  0  0  0
    0.0000   -1.6500    0.0000 C   0  0  0  0  0  0  0  0  0  0  0  0
    0.7145   -0.4125    0.0000 C   0  0  0  0  0  0  0  0  0  0  0  0
    1.4289    0.0000    0.0000 C   0  0  0  0  0  0  0  0  0  0  0  0
    2.1434   -0.4125    0.0000 C   0  0  0  0  0  0  0  0  0  0  0  0
    2.8579    0.0000    0.0000 C   0  0  0  0  0  0  0  0  0  0  0  0
    3.5724   -0.4125    0.0000 C   0  0  0  0  0  0  0  0  0  0  0  0
    4.2868   -0.0000    0.0000 O   0  0  0  0  0  0  0  0  0  0  0  0
    4.2868    0.8250    0.0000 C   0  0  0  0  0  0  0  0  0  0  0  0
    3.5724   -1.2375    0.0000 C   0  0  0  0  0  0  0  0  0  0  0  0
    4.2868   -1.6500    0.0000 O   0  0  0  0  0  0  0  0  0  0  0  0
    4.2868   -2.4750    0.0000 C   0  0  0  0  0  0  0  0  0  0  0  0
    2.8579   -1.6500    0.0000 C   0  0  0  0  0  0  0  0  0  0  0  0
    2.1434   -1.2375    0.0000 C   0  0  0  0  0  0  0  0  0  0  0  0
    0.0000   -2.4750    0.0000 C   0  0  0  0  0  0  0  0  0  0  0  0
   -0.7145   -2.8875    0.0000 C   0  0  0  0  0  0  0  0  0  0  0  0
   -1.4289   -2.4750    0.0000 O   0  0  0  0  0  0  0  0  0  0  0  0
   -1.4289   -1.6500    0.0000 C   0  0  0  0  0  0  0  0  0  0  0  0
  1  2  1  0  0  0  0
  2  3  1  0  0  0  0
  3  4  2  0  0  0  0
  3 25  1  0  0  0  0
  4  5  1  0  0  0  0
  5  6  1  0  0  0  0
  5  7  2  0  0  0  0
  7  8  1  0  0  0  0
  7 24  1  0  0  0  0
  8  9  1  0  0  0  0
  9 10  1  0  0  0  0
  9 23  1  0  0  0  0
 10 11  1  0  0  0  0
 10 12  1  0  0  0  0
 12 13  1  0  0  0  0
 13 14  1  0  0  0  0
 14 15  2  0  0  0  0
 14 23  1  0  0  0  0
 15 16  1  0  0  0  0
 16 17  1  0  0  0  0
 16 19  2  0  0  0  0
 17 18  1  0  0  0  0
 19 20  1  0  0  0  0
 19 22  1  0  0  0  0
 20 21  1  0  0  0  0
 22 23  2  0  0  0  0
 24 25  2  0  0  0  0
 25 26  1  0  0  0  0
 26 27  1  0  0  0  0
M  END
$$$$

 OpenBabel12191814062D

 39 40  0  0  0  0  0  0  0  0999 V2000
    3.8641   -2.0445    0.0000 C   0  0  0  0  0  0  0  0  0  0  0  0
    4.1056   -1.2557    0.0000 O   0  0  0  0  0  0  0  0  0  0  0  0
    3.5431   -0.6521    0.0000 C   0  0  3  0  0  0  0  0  0  0  0  0
    2.7392   -0.8374    0.0000 C   0  0  0  0  0  0  0  0  0  0  0  0
    2.0956   -0.2042    0.0000 C   0  0  3  0  0  0  0  0  0  0  0  0
    2.4414    0.5448    0.0000 C   0  0  0  0  0  0  0  0  0  0  0  0
    1.2738   -0.1320    0.0000 C   0  0  3  0  0  0  0  0  0  0  0  0
    0.7323   -0.7545    0.0000 O   0  0  0  0  0  0  0  0  0  0  0  0
   -0.0774   -0.5968    0.0000 C   0  0  0  0  0  0  0  0  0  0  0  0
    1.0885    0.6719    0.0000 C   0  0  0  0  0  0  0  0  0  0  0  0
    0.4414    1.1837    0.0000 C   0  0  0  0  0  0  0  0  0  0  0  0
    0.5611    1.9999    0.0000 C   0  0  0  0  0  0  0  0  0  0  0  0
   -0.0860    2.5117    0.0000 O   0  0  0  0  0  0  0  0  0  0  0  0
    1.3278    2.3044    0.0000 C   0  0  0  0  0  0  0  0  0  0  0  0
    2.0973    1.9475    0.0000 C   0  0  0  0  0  0  0  0  0  0  0  0
    2.9013    2.1328    0.0000 N   0  0  0  0  0  0  0  0  0  0  0  0
    3.1428    2.9217    0.0000 C   0  0  0  0  0  0  0  0  0  0  0  0
    2.5803    3.5252    0.0000 O   0  0  0  0  0  0  0  0  0  0  0  0
    3.9467    3.1069    0.0000 C   0  0  0  0  0  0  0  0  0  0  0  0
    4.5091    2.5034    0.0000 C   0  0  0  0  0  0  0  0  0  0  0  0
    4.1882    3.8958    0.0000 C   0  0  0  0  0  0  0  0  0  0  0  0
    4.9921    4.0811    0.0000 C   0  0  0  0  0  0  0  0  0  0  0  0
    5.5545    3.4775    0.0000 C   0  0  0  0  0  0  0  0  0  0  0  0
    5.3130    2.6887    0.0000 C   0  0  3  0  0  0  0  0  0  0  0  0
    4.7716    2.0662    0.0000 C   0  0  0  0  0  0  0  0  0  0  0  0
    5.8755    2.0851    0.0000 C   0  0  3  0  0  0  0  0  0  0  0  0
    6.6794    2.2704    0.0000 O   0  0  0  0  0  0  0  0  0  0  0  0
    7.2418    1.6668    0.0000 C   0  0  0  0  0  0  0  0  0  0  0  0
    8.0457    1.8521    0.0000 N   0  0  0  0  0  0  0  0  0  0  0  0
    7.0003    0.8779    0.0000 O   0  0  0  0  0  0  0  0  0  0  0  0
    5.6340    1.2962    0.0000 C   0  0  0  0  0  0  0  0  0  0  0  0
    6.1964    0.6927    0.0000 C   0  0  0  0  0  0  0  0  0  0  0  0
    4.8300    1.1109    0.0000 C   0  0  0  0  0  0  0  0  0  0  0  0
    4.5886    0.3221    0.0000 C   0  0  3  0  0  0  0  0  0  0  0  0
    5.1510   -0.2815    0.0000 C   0  0  0  0  0  0  0  0  0  0  0  0
    3.7846    0.1368    0.0000 C   0  0  3  0  0  0  0  0  0  0  0  0
    3.2222    0.7404    0.0000 O   0  0  0  0  0  0  0  0  0  0  0  0
    1.7958    1.0965    0.0000 C   0  0  0  0  0  0  0  0  0  0  0  0
    2.5647    0.7973    0.0000 O   0  0  0  0  0  0  0  0  0  0  0  0
  1  2  1  0  0  0  0
  2  3  1  0  0  0  0
  3  4  1  0  0  0  0
  3 36  1  0  0  0  0
  4  5  1  0  0  0  0
  5  6  1  0  0  0  0
  5  7  1  0  0  0  0
  7  8  1  0  0  0  0
  7 10  1  0  0  0  0
  8  9  1  0  0  0  0
 10 11  2  0  0  0  0
 10 38  1  0  0  0  0
 11 12  1  0  0  0  0
 12 13  2  0  0  0  0
 12 14  1  0  0  0  0
 14 15  2  0  0  0  0
 15 16  1  0  0  0  0
 15 38  1  0  0  0  0
 16 17  1  0  0  0  0
 17 18  2  0  0  0  0
 17 19  1  0  0  0  0
 19 20  1  0  0  0  0
 19 21  2  0  0  0  0
 21 22  1  0  0  0  0
 22 23  2  0  0  0  0
 23 24  1  0  0  0  0
 24 25  1  0  0  0  0
 24 26  1  0  0  0  0
 26 27  1  0  0  0  0
 26 31  1  0  0  0  0
 27 28  1  0  0  0  0
 28 29  1  0  0  0  0
 28 30  2  0  0  0  0
 31 32  1  0  0  0  0
 31 33  2  0  0  0  0
 33 34  1  0  0  0  0
 34 35  1  0  0  0  0
 34 36  1  0  0  0  0
 36 37  1  0  0  0  0
 38 39  2  0  0  0  0
M  END
$$$$

 OpenBabel12191814062D

 40 41  0  0  0  0  0  0  0  0999 V2000
    4.3602   -2.0791    0.0000 C   0  0  0  0  0  0  0  0  0  0  0  0
    4.9154   -1.4688    0.0000 O   0  0  0  0  0  0  0  0  0  0  0  0
    4.6645   -0.6829    0.0000 C   0  0  3  0  0  0  0  0  0  0  0  0
    4.0096   -1.1847    0.0000 C   0  0  0  0  0  0  0  0  0  0  0  0
    3.3300   -0.7169    0.0000 C   0  0  3  0  0  0  0  0  0  0  0  0
    2.5522   -0.9918    0.0000 C   0  0  0  0  0  0  0  0  0  0  0  0
    3.5649    0.0739    0.0000 C   0  0  3  0  0  0  0  0  0  0  0  0
    2.7412    0.0276    0.0000 O   0  0  0  0  0  0  0  0  0  0  0  0
    2.3694   -0.7089    0.0000 C   0  0  0  0  0  0  0  0  0  0  0  0
    3.2125    0.9051    0.0000 C   0  0  0  0  0  0  0  0  0  0  0  0
    2.3901    0.9704    0.0000 C   0  0  0  0  0  0  0  0  0  0  0  0
    2.0355    1.7153    0.0000 C   0  0  0  0  0  0  0  0  0  0  0  0
    1.2131    1.7806    0.0000 O   0  0  0  0  0  0  0  0  0  0  0  0
    2.5032    2.3949    0.0000 C   0  0  0  0  0  0  0  0  0  0  0  0
    3.3256    2.3296    0.0000 C   0  0  0  0  0  0  0  0  0  0  0  0
    3.7934    3.0092    0.0000 N   0  0  0  0  0  0  0  0  0  0  0  0
    3.4387    3.7540    0.0000 C   0  0  0  0  0  0  0  0  0  0  0  0
    2.6163    3.8193    0.0000 O   0  0  0  0  0  0  0  0  0  0  0  0
    3.9065    4.4336    0.0000 C   0  0  0  0  0  0  0  0  0  0  0  0
    3.5518    5.1785    0.0000 C   0  0  0  0  0  0  0  0  0  0  0  0
    4.7289    4.3683    0.0000 C   0  0  0  0  0  0  0  0  0  0  0  0
    5.0835    3.6235    0.0000 C   0  0  0  0  0  0  0  0  0  0  0  0
    5.9060    3.5582    0.0000 C   0  0  0  0  0  0  0  0  0  0  0  0
    6.2606    2.8133    0.0000 C   0  0  3  0  0  0  0  0  0  0  0  0
    6.9643    3.2439    0.0000 C   0  0  0  0  0  0  0  0  0  0  0  0
    5.7929    2.1337    0.0000 C   0  0  3  0  0  0  0  0  0  0  0  0
    6.6153    2.0684    0.0000 O   0  0  0  0  0  0  0  0  0  0  0  0
    7.0830    2.7480    0.0000 C   0  0  0  0  0  0  0  0  0  0  0  0
    7.2339    3.5591    0.0000 N   0  0  0  0  0  0  0  0  0  0  0  0
    7.9054    2.6827    0.0000 O   0  0  0  0  0  0  0  0  0  0  0  0
    6.1475    1.3888    0.0000 C   0  0  0  0  0  0  0  0  0  0  0  0
    6.9699    1.3236    0.0000 C   0  0  0  0  0  0  0  0  0  0  0  0
    5.6798    0.7093    0.0000 C   0  0  0  0  0  0  0  0  0  0  0  0
    6.0345   -0.0356    0.0000 C   0  0  3  0  0  0  0  0  0  0  0  0
    6.8569   -0.1009    0.0000 C   0  0  0  0  0  0  0  0  0  0  0  0
    5.5667   -0.7152    0.0000 C   0  0  3  0  0  0  0  0  0  0  0  0
    5.9375   -1.4522    0.0000 O   0  0  0  0  0  0  0  0  0  0  0  0
    6.7611   -1.4996    0.0000 C   0  0  0  0  0  0  0  0  0  0  0  0
    3.6803    1.5847    0.0000 C   0  0  0  0  0  0  0  0  0  0  0  0
    4.5027    1.5194    0.0000 O   0  0  0  0  0  0  0  0  0  0  0  0
  1  2  1  0  0  0  0
  2  3  1  0  0  0  0
  3  4  1  0  0  0  0
  3 36  1  0  0  0  0
  4  5  1  0  0  0  0
  5  6  1  0  0  0  0
  5  7  1  0  0  0  0
  7  8  1  0  0  0  0
  7 10  1  0  0  0  0
  8  9  1  0  0  0  0
 10 11  2  0  0  0  0
 10 39  1  0  0  0  0
 11 12  1  0  0  0  0
 12 13  1  0  0  0  0
 12 14  2  0  0  0  0
 14 15  1  0  0  0  0
 15 16  1  0  0  0  0
 15 39  2  0  0  0  0
 16 17  1  0  0  0  0
 17 18  2  0  0  0  0
 17 19  1  0  0  0  0
 19 20  1  0  0  0  0
 19 21  2  3  0  0  0
 21 22  1  0  0  0  0
 22 23  2  3  0  0  0
 23 24  1  0  0  0  0
 24 25  1  0  0  0  0
 24 26  1  0  0  0  0
 26 27  1  0  0  0  0
 26 31  1  0  0  0  0
 27 28  1  0  0  0  0
 28 29  1  0  0  0  0
 28 30  2  0  0  0  0
 31 32  1  0  0  0  0
 31 33  2  3  0  0  0
 33 34  1  0  0  0  0
 34 35  1  0  0  0  0
 34 36  1  0  0  0  0
 36 37  1  0  0  0  0
 37 38  1  0  0  0  0
 39 40  1  0  0  0  0
M  END
$$$$

 OpenBabel12191814062D

 42 43  0  0  0  0  0  0  0  0999 V2000
    3.8641   -2.0445    0.0000 C   0  0  0  0  0  0  0  0  0  0  0  0
    4.1056   -1.2557    0.0000 O   0  0  0  0  0  0  0  0  0  0  0  0
    3.5431   -0.6521    0.0000 C   0  0  3  0  0  0  0  0  0  0  0  0
    2.7392   -0.8374    0.0000 C   0  0  0  0  0  0  0  0  0  0  0  0
    2.0956   -0.2042    0.0000 C   0  0  3  0  0  0  0  0  0  0  0  0
    2.4414    0.5448    0.0000 C   0  0  0  0  0  0  0  0  0  0  0  0
    1.2738   -0.1320    0.0000 C   0  0  0  0  0  0  0  0  0  0  0  0
    1.0885    0.6719    0.0000 C   0  0  0  0  0  0  0  0  0  0  0  0
    0.4414    1.1837    0.0000 C   0  0  0  0  0  0  0  0  0  0  0  0
   -0.3253    0.8791    0.0000 N   0  0  0  0  0  0  0  0  0  0  0  0
   -0.9724    1.3909    0.0000 C   0  0  0  0  0  0  0  0  0  0  0  0
   -1.7391    1.0864    0.0000 C   0  0  0  0  0  0  0  0  0  0  0  0
   -2.3862    1.5981    0.0000 C   0  0  0  0  0  0  0  0  0  0  0  0
    0.5611    1.9999    0.0000 C   0  0  0  0  0  0  0  0  0  0  0  0
   -0.0860    2.5117    0.0000 O   0  0  0  0  0  0  0  0  0  0  0  0
    1.3278    2.3044    0.0000 C   0  0  0  0  0  0  0  0  0  0  0  0
    2.0973    1.9475    0.0000 C   0  0  0  0  0  0  0  0  0  0  0  0
    2.9013    2.1328    0.0000 N   0  0  0  0  0  0  0  0  0  0  0  0
    3.1428    2.9217    0.0000 C   0  0  0  0  0  0  0  0  0  0  0  0
    2.5803    3.5252    0.0000 O   0  0  0  0  0  0  0  0  0  0  0  0
    3.9467    3.1069    0.0000 C   0  0  0  0  0  0  0  0  0  0  0  0
    4.5091    2.5034    0.0000 C   0  0  0  0  0  0  0  0  0  0  0  0
    4.1882    3.8958    0.0000 C   0  0  0  0  0  0  0  0  0  0  0  0
    4.9921    4.0811    0.0000 C   0  0  0  0  0  0  0  0  0  0  0  0
    5.5545    3.4775    0.0000 C   0  0  0  0  0  0  0  0  0  0  0  0
    5.3130    2.6887    0.0000 C   0  0  3  0  0  0  0  0  0  0  0  0
    6.1170    2.8740    0.0000 O   0  0  0  0  0  0  0  0  0  0  0  0
    6.3585    3.6628    0.0000 C   0  0  0  0  0  0  0  0  0  0  0  0
    5.8755    2.0851    0.0000 C   0  0  3  0  0  0  0  0  0  0  0  0
    6.6794    2.2704    0.0000 O   0  0  0  0  0  0  0  0  0  0  0  0
    7.2418    1.6668    0.0000 C   0  0  0  0  0  0  0  0  0  0  0  0
    8.0457    1.8521    0.0000 N   0  0  0  0  0  0  0  0  0  0  0  0
    7.0003    0.8779    0.0000 O   0  0  0  0  0  0  0  0  0  0  0  0
    5.6340    1.2962    0.0000 C   0  0  0  0  0  0  0  0  0  0  0  0
    6.1964    0.6927    0.0000 C   0  0  0  0  0  0  0  0  0  0  0  0
    4.8300    1.1109    0.0000 C   0  0  0  0  0  0  0  0  0  0  0  0
    4.5886    0.3221    0.0000 C   0  0  3  0  0  0  0  0  0  0  0  0
    5.1510   -0.2815    0.0000 C   0  0  0  0  0  0  0  0  0  0  0  0
    3.7846    0.1368    0.0000 C   0  0  3  0  0  0  0  0  0  0  0  0
    3.2222    0.7404    0.0000 O   0  0  0  0  0  0  0  0  0  0  0  0
    1.7958    1.0965    0.0000 C   0  0  0  0  0  0  0  0  0  0  0  0
    2.5647    0.7973    0.0000 O   0  0  0  0  0  0  0  0  0  0  0  0
  1  2  1  0  0  0  0
  2  3  1  0  0  0  0
  3  4  1  0  0  0  0
  3 39  1  0  0  0  0
  4  5  1  0  0  0  0
  5  6  1  0  0  0  0
  5  7  1  0  0  0  0
  7  8  1  0  0  0  0
  8  9  2  0  0  0  0
  8 41  1  0  0  0  0
  9 10  1  0  0  0  0
  9 14  1  0  0  0  0
 10 11  1  0  0  0  0
 11 12  1  0  0  0  0
 12 13  2  0  0  0  0
 14 15  2  0  0  0  0
 14 16  1  0  0  0  0
 16 17  2  0  0  0  0
 17 18  1  0  0  0  0
 17 41  1  0  0  0  0
 18 19  1  0  0  0  0
 19 20  2  0  0  0  0
 19 21  1  0  0  0  0
 21 22  1  0  0  0  0
 21 23  2  0  0  0  0
 23 24  1  0  0  0  0
 24 25  2  0  0  0  0
 25 26  1  0  0  0  0
 26 27  1  0  0  0  0
 26 29  1  0  0  0  0
 27 28  1  0  0  0  0
 29 30  1  0  0  0  0
 29 34  1  0  0  0  0
 30 31  1  0  0  0  0
 31 32  1  0  0  0  0
 31 33  2  0  0  0  0
 34 35  1  0  0  0  0
 34 36  2  0  0  0  0
 36 37  1  0  0  0  0
 37 38  1  0  0  0  0
 37 39  1  0  0  0  0
 39 40  1  0  0  0  0
 41 42  2  0  0  0  0
M  END
$$$$

 OpenBabel12191814062D

 42 43  0  0  0  0  0  0  0  0999 V2000
    4.3602   -2.0791    0.0000 C   0  0  0  0  0  0  0  0  0  0  0  0
    4.9154   -1.4688    0.0000 O   0  0  0  0  0  0  0  0  0  0  0  0
    4.6645   -0.6829    0.0000 C   0  0  3  0  0  0  0  0  0  0  0  0
    4.0096   -1.1847    0.0000 C   0  0  0  0  0  0  0  0  0  0  0  0
    3.3300   -0.7169    0.0000 C   0  0  3  0  0  0  0  0  0  0  0  0
    2.5522   -0.9918    0.0000 C   0  0  0  0  0  0  0  0  0  0  0  0
    3.5649    0.0739    0.0000 C   0  0  0  0  0  0  0  0  0  0  0  0
    3.2125    0.9051    0.0000 C   0  0  0  0  0  0  0  0  0  0  0  0
    2.3901    0.9704    0.0000 C   0  0  0  0  0  0  0  0  0  0  0  0
    1.9224    0.2908    0.0000 N   0  0  0  0  0  0  0  0  0  0  0  0
    1.1000    0.3561    0.0000 C   0  0  0  0  0  0  0  0  0  0  0  0
    0.6322   -0.3235    0.0000 C   0  0  0  0  0  0  0  0  0  0  0  0
   -0.1902   -0.2582    0.0000 C   0  0  0  0  0  0  0  0  0  0  0  0
    2.0355    1.7153    0.0000 C   0  0  0  0  0  0  0  0  0  0  0  0
    1.2131    1.7806    0.0000 O   0  0  0  0  0  0  0  0  0  0  0  0
    2.5032    2.3949    0.0000 C   0  0  0  0  0  0  0  0  0  0  0  0
    3.3256    2.3296    0.0000 C   0  0  0  0  0  0  0  0  0  0  0  0
    3.7934    3.0092    0.0000 N   0  0  0  0  0  0  0  0  0  0  0  0
    3.4387    3.7540    0.0000 C   0  0  0  0  0  0  0  0  0  0  0  0
    2.6163    3.8193    0.0000 O   0  0  0  0  0  0  0  0  0  0  0  0
    3.9065    4.4336    0.0000 C   0  0  0  0  0  0  0  0  0  0  0  0
    3.5518    5.1785    0.0000 C   0  0  0  0  0  0  0  0  0  0  0  0
    4.7289    4.3683    0.0000 C   0  0  0  0  0  0  0  0  0  0  0  0
    5.0835    3.6235    0.0000 C   0  0  0  0  0  0  0  0  0  0  0  0
    5.9060    3.5582    0.0000 C   0  0  0  0  0  0  0  0  0  0  0  0
    6.2606    2.8133    0.0000 C   0  0  3  0  0  0  0  0  0  0  0  0
    7.0830    2.7480    0.0000 O   0  0  0  0  0  0  0  0  0  0  0  0
    7.5508    3.4276    0.0000 C   0  0  0  0  0  0  0  0  0  0  0  0
    5.7929    2.1337    0.0000 C   0  0  3  0  0  0  0  0  0  0  0  0
    6.6153    2.0684    0.0000 O   0  0  0  0  0  0  0  0  0  0  0  0
    6.9699    1.3236    0.0000 C   0  0  0  0  0  0  0  0  0  0  0  0
    7.7924    1.2583    0.0000 N   0  0  0  0  0  0  0  0  0  0  0  0
    6.5022    0.6440    0.0000 O   0  0  0  0  0  0  0  0  0  0  0  0
    6.1475    1.3888    0.0000 C   0  0  0  0  0  0  0  0  0  0  0  0
    6.7745    0.8526    0.0000 C   0  0  0  0  0  0  0  0  0  0  0  0
    5.6798    0.7093    0.0000 C   0  0  0  0  0  0  0  0  0  0  0  0
    6.0345   -0.0356    0.0000 C   0  0  3  0  0  0  0  0  0  0  0  0
    6.8569   -0.1009    0.0000 C   0  0  0  0  0  0  0  0  0  0  0  0
    5.5667   -0.7152    0.0000 C   0  0  3  0  0  0  0  0  0  0  0  0
    5.9375   -1.4522    0.0000 O   0  0  0  0  0  0  0  0  0  0  0  0
    3.6803    1.5847    0.0000 C   0  0  0  0  0  0  0  0  0  0  0  0
    4.5027    1.5194    0.0000 O   0  0  0  0  0  0  0  0  0  0  0  0
  1  2  1  0  0  0  0
  2  3  1  0  0  0  0
  3  4  1  0  0  0  0
  3 39  1  0  0  0  0
  4  5  1  0  0  0  0
  5  6  1  0  0  0  0
  5  7  1  0  0  0  0
  7  8  1  0  0  0  0
  8  9  2  0  0  0  0
  8 41  1  0  0  0  0
  9 10  1  0  0  0  0
  9 14  1  0  0  0  0
 10 11  1  0  0  0  0
 11 12  1  0  0  0  0
 12 13  2  0  0  0  0
 14 15  2  0  0  0  0
 14 16  1  0  0  0  0
 16 17  2  0  0  0  0
 17 18  1  0  0  0  0
 17 41  1  0  0  0  0
 18 19  1  0  0  0  0
 19 20  2  0  0  0  0
 19 21  1  0  0  0  0
 21 22  1  0  0  0  0
 21 23  2  3  0  0  0
 23 24  1  0  0  0  0
 24 25  2  3  0  0  0
 25 26  1  0  0  0  0
 26 27  1  0  0  0  0
 26 29  1  0  0  0  0
 27 28  1  0  0  0  0
 29 30  1  0  0  0  0
 29 34  1  0  0  0  0
 30 31  1  0  0  0  0
 31 32  1  0  0  0  0
 31 33  2  0  0  0  0
 34 35  1  0  0  0  0
 34 36  2  3  0  0  0
 36 37  1  0  0  0  0
 37 38  1  0  0  0  0
 37 39  1  0  0  0  0
 39 40  1  0  0  0  0
 41 42  2  0  0  0  0
M  END
$$$$

 OpenBabel12191814062D

 40 41  0  0  0  0  0  0  0  0999 V2000
    3.8641   -2.0445    0.0000 C   0  0  0  0  0  0  0  0  0  0  0  0
    4.1056   -1.2557    0.0000 O   0  0  0  0  0  0  0  0  0  0  0  0
    3.5431   -0.6521    0.0000 C   0  0  3  0  0  0  0  0  0  0  0  0
    2.7392   -0.8374    0.0000 C   0  0  0  0  0  0  0  0  0  0  0  0
    2.0956   -0.2042    0.0000 C   0  0  3  0  0  0  0  0  0  0  0  0
    2.4414    0.5448    0.0000 C   0  0  0  0  0  0  0  0  0  0  0  0
    1.2738   -0.1320    0.0000 C   0  0  0  0  0  0  0  0  0  0  0  0
    1.0885    0.6719    0.0000 C   0  0  0  0  0  0  0  0  0  0  0  0
    0.4414    1.1837    0.0000 C   0  0  0  0  0  0  0  0  0  0  0  0
   -0.3253    0.8791    0.0000 O   0  0  0  0  0  0  0  0  0  0  0  0
   -0.9724    1.3909    0.0000 C   0  0  0  0  0  0  0  0  0  0  0  0
    0.5611    1.9999    0.0000 C   0  0  0  0  0  0  0  0  0  0  0  0
   -0.0860    2.5117    0.0000 O   0  0  0  0  0  0  0  0  0  0  0  0
    1.3278    2.3044    0.0000 C   0  0  0  0  0  0  0  0  0  0  0  0
    2.0973    1.9475    0.0000 C   0  0  0  0  0  0  0  0  0  0  0  0
    2.9013    2.1328    0.0000 N   0  0  0  0  0  0  0  0  0  0  0  0
    3.1428    2.9217    0.0000 C   0  0  0  0  0  0  0  0  0  0  0  0
    2.5803    3.5252    0.0000 O   0  0  0  0  0  0  0  0  0  0  0  0
    3.9467    3.1069    0.0000 C   0  0  0  0  0  0  0  0  0  0  0  0
    4.5091    2.5034    0.0000 C   0  0  0  0  0  0  0  0  0  0  0  0
    4.1882    3.8958    0.0000 C   0  0  0  0  0  0  0  0  0  0  0  0
    4.9921    4.0811    0.0000 C   0  0  0  0  0  0  0  0  0  0  0  0
    5.5545    3.4775    0.0000 C   0  0  0  0  0  0  0  0  0  0  0  0
    5.3130    2.6887    0.0000 C   0  0  3  0  0  0  0  0  0  0  0  0
    6.1170    2.8740    0.0000 O   0  0  0  0  0  0  0  0  0  0  0  0
    6.3585    3.6628    0.0000 C   0  0  0  0  0  0  0  0  0  0  0  0
    5.8755    2.0851    0.0000 C   0  0  3  0  0  0  0  0  0  0  0  0
    6.6794    2.2704    0.0000 O   0  0  0  0  0  0  0  0  0  0  0  0
    7.2418    1.6668    0.0000 C   0  0  0  0  0  0  0  0  0  0  0  0
    8.0457    1.8521    0.0000 N   0  0  0  0  0  0  0  0  0  0  0  0
    7.0003    0.8779    0.0000 O   0  0  0  0  0  0  0  0  0  0  0  0
    5.6340    1.2962    0.0000 C   0  0  0  0  0  0  0  0  0  0  0  0
    6.1964    0.6927    0.0000 C   0  0  0  0  0  0  0  0  0  0  0  0
    4.8300    1.1109    0.0000 C   0  0  0  0  0  0  0  0  0  0  0  0
    4.5886    0.3221    0.0000 C   0  0  3  0  0  0  0  0  0  0  0  0
    5.1510   -0.2815    0.0000 C   0  0  0  0  0  0  0  0  0  0  0  0
    3.7846    0.1368    0.0000 C   0  0  3  0  0  0  0  0  0  0  0  0
    3.2222    0.7404    0.0000 O   0  0  0  0  0  0  0  0  0  0  0  0
    1.7958    1.0965    0.0000 C   0  0  0  0  0  0  0  0  0  0  0  0
    2.5647    0.7973    0.0000 O   0  0  0  0  0  0  0  0  0  0  0  0
  1  2  1  0  0  0  0
  2  3  1  0  0  0  0
  3  4  1  0  0  0  0
  3 37  1  0  0  0  0
  4  5  1  0  0  0  0
  5  6  1  0  0  0  0
  5  7  1  0  0  0  0
  7  8  1  0  0  0  0
  8  9  2  0  0  0  0
  8 39  1  0  0  0  0
  9 10  1  0  0  0  0
  9 12  1  0  0  0  0
 10 11  1  0  0  0  0
 12 13  2  0  0  0  0
 12 14  1  0  0  0  0
 14 15  2  0  0  0  0
 15 16  1  0  0  0  0
 15 39  1  0  0  0  0
 16 17  1  0  0  0  0
 17 18  2  0  0  0  0
 17 19  1  0  0  0  0
 19 20  1  0  0  0  0
 19 21  2  0  0  0  0
 21 22  1  0  0  0  0
 22 23  2  0  0  0  0
 23 24  1  0  0  0  0
 24 25  1  0  0  0  0
 24 27  1  0  0  0  0
 25 26  1  0  0  0  0
 27 28  1  0  0  0  0
 27 32  1  0  0  0  0
 28 29  1  0  0  0  0
 29 30  1  0  0  0  0
 29 31  2  0  0  0  0
 32 33  1  0  0  0  0
 32 34  2  0  0  0  0
 34 35  1  0  0  0  0
 35 36  1  0  0  0  0
 35 37  1  0  0  0  0
 37 38  1  0  0  0  0
 39 40  2  0  0  0  0
M  END
$$$$

 OpenBabel12191814062D

 40 41  0  0  0  0  0  0  0  0999 V2000
    4.3602   -2.0791    0.0000 C   0  0  0  0  0  0  0  0  0  0  0  0
    4.9154   -1.4688    0.0000 O   0  0  0  0  0  0  0  0  0  0  0  0
    4.6645   -0.6829    0.0000 C   0  0  3  0  0  0  0  0  0  0  0  0
    4.0096   -1.1847    0.0000 C   0  0  0  0  0  0  0  0  0  0  0  0
    3.3300   -0.7169    0.0000 C   0  0  3  0  0  0  0  0  0  0  0  0
    2.5522   -0.9918    0.0000 C   0  0  0  0  0  0  0  0  0  0  0  0
    3.5649    0.0739    0.0000 C   0  0  0  0  0  0  0  0  0  0  0  0
    3.2125    0.9051    0.0000 C   0  0  0  0  0  0  0  0  0  0  0  0
    2.3901    0.9704    0.0000 C   0  0  0  0  0  0  0  0  0  0  0  0
    1.9224    0.2908    0.0000 O   0  0  0  0  0  0  0  0  0  0  0  0
    1.1000    0.3561    0.0000 C   0  0  0  0  0  0  0  0  0  0  0  0
    2.0355    1.7153    0.0000 C   0  0  0  0  0  0  0  0  0  0  0  0
    1.2131    1.7806    0.0000 O   0  0  0  0  0  0  0  0  0  0  0  0
    2.5032    2.3949    0.0000 C   0  0  0  0  0  0  0  0  0  0  0  0
    3.3256    2.3296    0.0000 C   0  0  0  0  0  0  0  0  0  0  0  0
    3.7934    3.0092    0.0000 N   0  0  0  0  0  0  0  0  0  0  0  0
    3.4387    3.7540    0.0000 C   0  0  0  0  0  0  0  0  0  0  0  0
    2.6163    3.8193    0.0000 O   0  0  0  0  0  0  0  0  0  0  0  0
    3.9065    4.4336    0.0000 C   0  0  0  0  0  0  0  0  0  0  0  0
    3.5518    5.1785    0.0000 C   0  0  0  0  0  0  0  0  0  0  0  0
    4.7289    4.3683    0.0000 C   0  0  0  0  0  0  0  0  0  0  0  0
    5.0835    3.6235    0.0000 C   0  0  0  0  0  0  0  0  0  0  0  0
    5.9060    3.5582    0.0000 C   0  0  0  0  0  0  0  0  0  0  0  0
    6.2606    2.8133    0.0000 C   0  0  3  0  0  0  0  0  0  0  0  0
    7.0830    2.7480    0.0000 O   0  0  0  0  0  0  0  0  0  0  0  0
    7.5508    3.4276    0.0000 C   0  0  0  0  0  0  0  0  0  0  0  0
    5.7929    2.1337    0.0000 C   0  0  3  0  0  0  0  0  0  0  0  0
    6.6153    2.0684    0.0000 O   0  0  0  0  0  0  0  0  0  0  0  0
    6.9699    1.3236    0.0000 C   0  0  0  0  0  0  0  0  0  0  0  0
    7.7924    1.2583    0.0000 N   0  0  0  0  0  0  0  0  0  0  0  0
    6.5022    0.6440    0.0000 O   0  0  0  0  0  0  0  0  0  0  0  0
    6.1475    1.3888    0.0000 C   0  0  0  0  0  0  0  0  0  0  0  0
    6.7745    0.8526    0.0000 C   0  0  0  0  0  0  0  0  0  0  0  0
    5.6798    0.7093    0.0000 C   0  0  0  0  0  0  0  0  0  0  0  0
    6.0345   -0.0356    0.0000 C   0  0  3  0  0  0  0  0  0  0  0  0
    6.8569   -0.1009    0.0000 C   0  0  0  0  0  0  0  0  0  0  0  0
    5.5667   -0.7152    0.0000 C   0  0  3  0  0  0  0  0  0  0  0  0
    5.9375   -1.4522    0.0000 O   0  0  0  0  0  0  0  0  0  0  0  0
    3.6803    1.5847    0.0000 C   0  0  0  0  0  0  0  0  0  0  0  0
    4.5027    1.5194    0.0000 O   0  0  0  0  0  0  0  0  0  0  0  0
  1  2  1  0  0  0  0
  2  3  1  0  0  0  0
  3  4  1  0  0  0  0
  3 37  1  0  0  0  0
  4  5  1  0  0  0  0
  5  6  1  0  0  0  0
  5  7  1  0  0  0  0
  7  8  1  0  0  0  0
  8  9  2  0  0  0  0
  8 39  1  0  0  0  0
  9 10  1  0  0  0  0
  9 12  1  0  0  0  0
 10 11  1  0  0  0  0
 12 13  2  0  0  0  0
 12 14  1  0  0  0  0
 14 15  2  0  0  0  0
 15 16  1  0  0  0  0
 15 39  1  0  0  0  0
 16 17  1  0  0  0  0
 17 18  2  0  0  0  0
 17 19  1  0  0  0  0
 19 20  1  0  0  0  0
 19 21  2  3  0  0  0
 21 22  1  0  0  0  0
 22 23  2  3  0  0  0
 23 24  1  0  0  0  0
 24 25  1  0  0  0  0
 24 27  1  0  0  0  0
 25 26  1  0  0  0  0
 27 28  1  0  0  0  0
 27 32  1  0  0  0  0
 28 29  1  0  0  0  0
 29 30  1  0  0  0  0
 29 31  2  0  0  0  0
 32 33  1  0  0  0  0
 32 34  2  3  0  0  0
 34 35  1  0  0  0  0
 35 36  1  0  0  0  0
 35 37  1  0  0  0  0
 37 38  1  0  0  0  0
 39 40  2  0  0  0  0
M  END
$$$$

 OpenBabel12191814062D

 65 68  0  0  0  0  0  0  0  0999 V2000
    5.7908   -4.7301    0.0000 C   0  0  0  0  0  0  0  0  0  0  0  0
    5.0240   -5.0346    0.0000 O   0  0  0  0  0  0  0  0  0  0  0  0
    4.3769   -4.5229    0.0000 C   0  0  3  0  0  0  0  0  0  0  0  0
    4.4965   -3.7066    0.0000 C   0  0  0  0  0  0  0  0  0  0  0  0
    3.8494   -3.1949    0.0000 C   0  0  3  0  0  0  0  0  0  0  0  0
    3.9691   -2.3786    0.0000 C   0  0  0  0  0  0  0  0  0  0  0  0
    4.7358   -2.0740    0.0000 C   0  0  3  0  0  0  0  0  0  0  0  0
    5.3829   -2.5858    0.0000 C   0  0  0  0  0  0  0  0  0  0  0  0
    4.8554   -1.2577    0.0000 C   0  0  3  0  0  0  0  0  0  0  0  0
    4.0887   -1.5623    0.0000 C   0  0  0  0  0  0  0  0  0  0  0  0
    3.4416   -1.0506    0.0000 C   0  0  0  0  0  0  0  0  0  0  0  0
    3.5612   -0.2343    0.0000 O   0  0  0  0  0  0  0  0  0  0  0  0
    2.6748   -1.3551    0.0000 C   0  0  3  0  0  0  0  0  0  0  0  0
    2.5552   -2.1714    0.0000 C   0  0  0  0  0  0  0  0  0  0  0  0
    2.0277   -0.8434    0.0000 C   0  0  0  0  0  0  0  0  0  0  0  0
    1.2610   -1.1479    0.0000 C   0  0  0  0  0  0  0  0  0  0  0  0
    1.1414   -1.9642    0.0000 C   0  0  0  0  0  0  0  0  0  0  0  0
    0.6139   -0.6362    0.0000 C   0  0  3  0  0  0  0  0  0  0  0  0
   -0.1461   -0.9573    0.0000 O   0  0  0  0  0  0  0  0  0  0  0  0
    0.7059    0.2619    0.0000 C   0  0  3  0  0  0  0  0  0  0  0  0
   -0.0949    0.0636    0.0000 O   0  0  0  0  0  0  0  0  0  0  0  0
   -0.6671    0.6580    0.0000 C   0  0  0  0  0  0  0  0  0  0  0  0
    0.2486    0.9486    0.0000 C   0  0  0  0  0  0  0  0  0  0  0  0
   -0.5758    0.9822    0.0000 O   0  0  0  0  0  0  0  0  0  0  0  0
    0.7603    1.5957    0.0000 C   0  0  3  0  0  0  0  0  0  0  0  0
    0.5376    2.3900    0.0000 C   0  0  0  0  0  0  0  0  0  0  0  0
    1.5339    1.3089    0.0000 C   0  0  0  0  0  0  0  0  0  0  0  0
    2.3866    1.6055    0.0000 C   0  0  3  0  0  0  0  0  0  0  0  0
    2.5239    2.4190    0.0000 C   0  0  0  0  0  0  0  0  0  0  0  0
    3.0337    1.0937    0.0000 C   0  0  0  0  0  0  0  0  0  0  0  0
    3.8004    1.3983    0.0000 C   0  0  0  0  0  0  0  0  0  0  0  0
    4.4475    0.8865    0.0000 C   0  0  0  0  0  0  0  0  0  0  0  0
    5.2143    1.1911    0.0000 C   0  0  0  0  0  0  0  0  0  0  0  0
    5.8614    0.6794    0.0000 C   0  0  0  0  0  0  0  0  0  0  0  0
    6.6281    0.9839    0.0000 C   0  0  0  0  0  0  0  0  0  0  0  0
    6.7477    1.8002    0.0000 C   0  0  0  0  0  0  0  0  0  0  0  0
    7.2752    0.4722    0.0000 C   0  0  3  0  0  0  0  0  0  0  0  0
    8.0419    0.7767    0.0000 C   0  0  0  0  0  0  0  0  0  0  0  0
    8.6891    0.2650    0.0000 C   0  0  3  0  0  0  0  0  0  0  0  0
    9.4558    0.5695    0.0000 C   0  0  0  0  0  0  0  0  0  0  0  0
   10.1029    0.0578    0.0000 C   0  0  0  0  0  0  0  0  0  0  0  0
    9.9833   -0.7585    0.0000 C   0  0  3  0  0  0  0  0  0  0  0  0
   10.6304   -1.2702    0.0000 C   0  0  0  0  0  0  0  0  0  0  0  0
    9.2166   -1.0630    0.0000 C   0  0  3  0  0  0  0  0  0  0  0  0
    9.8637   -1.5748    0.0000 O   0  0  0  0  0  0  0  0  0  0  0  0
    8.5694   -0.5513    0.0000 O   0  0  0  0  0  0  0  0  0  0  0  0
    9.0969   -1.8793    0.0000 C   0  0  0  0  0  0  0  0  0  0  0  0
    9.7440   -2.3910    0.0000 O   0  0  0  0  0  0  0  0  0  0  0  0
    8.0494   -2.3929    0.0000 C   0  0  0  0  0  0  0  0  0  0  0  0
    8.7132   -2.9146    0.0000 O   0  0  0  0  0  0  0  0  0  0  0  0
    7.6831   -1.6721    0.0000 N   0  0  0  0  0  0  0  0  0  0  0  0
    8.3302   -2.1839    0.0000 C   0  0  0  0  0  0  0  0  0  0  0  0
    8.2106   -3.0001    0.0000 C   0  0  0  0  0  0  0  0  0  0  0  0
    7.4439   -3.3047    0.0000 C   0  0  0  0  0  0  0  0  0  0  0  0
    6.7967   -2.7930    0.0000 C   0  0  0  0  0  0  0  0  0  0  0  0
    6.9164   -1.9767    0.0000 C   0  0  3  0  0  0  0  0  0  0  0  0
    6.2692   -1.4649    0.0000 C   0  0  0  0  0  0  0  0  0  0  0  0
    6.3889   -0.6487    0.0000 O   0  0  0  0  0  0  0  0  0  0  0  0
    5.5025   -1.7695    0.0000 O   0  0  0  0  0  0  0  0  0  0  0  0
    7.3948    1.2885    0.0000 O   0  0  0  0  0  0  0  0  0  0  0  0
    8.1616    1.5930    0.0000 C   0  0  0  0  0  0  0  0  0  0  0  0
    3.0827   -3.4994    0.0000 C   0  0  0  0  0  0  0  0  0  0  0  0
    2.9631   -4.3157    0.0000 C   0  0  0  0  0  0  0  0  0  0  0  0
    3.6102   -4.8274    0.0000 C   0  0  3  0  0  0  0  0  0  0  0  0
    3.4906   -5.6437    0.0000 O   0  0  0  0  0  0  0  0  0  0  0  0
  1  2  1  0  0  0  0
  2  3  1  0  0  0  0
  3  4  1  0  0  0  0
  3 64  1  0  0  0  0
  4  5  1  0  0  0  0
  5  6  1  0  0  0  0
  5 62  1  0  0  0  0
  6  7  1  0  0  0  0
  7  8  1  0  0  0  0
  7  9  1  0  0  0  0
  9 10  1  0  0  0  0
  9 59  1  0  0  0  0
 10 11  1  0  0  0  0
 11 12  2  0  0  0  0
 11 13  1  0  0  0  0
 13 14  1  0  0  0  0
 13 15  1  0  0  0  0
 15 16  2  0  0  0  0
 16 17  1  0  0  0  0
 16 18  1  0  0  0  0
 18 19  1  0  0  0  0
 18 20  1  0  0  0  0
 20 21  1  0  0  0  0
 20 23  1  0  0  0  0
 21 22  1  0  0  0  0
 23 24  2  0  0  0  0
 23 25  1  0  0  0  0
 25 26  1  0  0  0  0
 25 27  1  0  0  0  0
 27 28  1  0  0  0  0
 28 29  1  0  0  0  0
 28 30  1  0  0  0  0
 30 31  2  0  0  0  0
 31 32  1  0  0  0  0
 32 33  2  0  0  0  0
 33 34  1  0  0  0  0
 34 35  2  0  0  0  0
 35 36  1  0  0  0  0
 35 37  1  0  0  0  0
 37 38  1  0  0  0  0
 37 60  1  0  0  0  0
 38 39  1  0  0  0  0
 39 40  1  0  0  0  0
 39 46  1  0  0  0  0
 40 41  1  0  0  0  0
 41 42  1  0  0  0  0
 42 43  1  0  0  0  0
 42 44  1  0  0  0  0
 44 45  1  0  0  0  0
 44 46  1  0  0  0  0
 44 47  1  0  0  0  0
 47 48  2  0  0  0  0
 47 49  1  0  0  0  0
 49 50  2  0  0  0  0
 49 51  1  0  0  0  0
 51 52  1  0  0  0  0
 51 56  1  0  0  0  0
 52 53  1  0  0  0  0
 53 54  1  0  0  0  0
 54 55  1  0  0  0  0
 55 56  1  0  0  0  0
 56 57  1  0  0  0  0
 57 58  2  0  0  0  0
 57 59  1  0  0  0  0
 60 61  1  0  0  0  0
 62 63  1  0  0  0  0
 63 64  1  0  0  0  0
 64 65  1  0  0  0  0
M  END
$$$$

 OpenBabel12191814062D

 44 47  0  0  0  0  0  0  0  0999 V2000
    6.5598  -11.0305    0.0000 C   0  0  0  0  0  0  0  0  0  0  0  0
    6.2897  -10.2510    0.0000 O   0  0  0  0  0  0  0  0  0  0  0  0
    6.8298   -9.6273    0.0000 C   0  0  0  0  0  0  0  0  0  0  0  0
    6.5598   -8.8478    0.0000 C   0  0  0  0  0  0  0  0  0  0  0  0
    7.0999   -8.2241    0.0000 C   0  0  0  0  0  0  0  0  0  0  0  0
    7.9100   -8.3800    0.0000 C   0  0  0  0  0  0  0  0  0  0  0  0
    8.1801   -9.1596    0.0000 C   0  0  0  0  0  0  0  0  0  0  0  0
    8.9902   -9.3155    0.0000 O   0  0  0  0  0  0  0  0  0  0  0  0
    9.2602  -10.0950    0.0000 C   0  0  0  0  0  0  0  0  0  0  0  0
    7.6400   -9.7832    0.0000 C   0  0  0  0  0  0  0  0  0  0  0  0
    7.9100  -10.5628    0.0000 O   0  0  0  0  0  0  0  0  0  0  0  0
    7.3699  -11.1864    0.0000 C   0  0  0  0  0  0  0  0  0  0  0  0
    6.8298   -7.4446    0.0000 C   0  0  0  0  0  0  0  0  0  0  0  0
    7.3699   -6.8209    0.0000 O   0  0  0  0  0  0  0  0  0  0  0  0
    6.0197   -7.2887    0.0000 C   0  0  0  0  0  0  0  0  0  0  0  0
    5.7497   -6.5091    0.0000 O   0  0  0  0  0  0  0  0  0  0  0  0
    5.4796   -7.9123    0.0000 N   0  0  0  0  0  0  0  0  0  0  0  0
    5.7497   -8.6918    0.0000 C   0  0  0  0  0  0  0  0  0  0  0  0
    5.2096   -9.3155    0.0000 C   0  0  0  0  0  0  0  0  0  0  0  0
    4.3994   -9.1596    0.0000 C   0  0  0  0  0  0  0  0  0  0  0  0
    4.1294   -8.3800    0.0000 C   0  0  0  0  0  0  0  0  0  0  0  0
    4.6695   -7.7564    0.0000 C   0  0  3  0  0  0  0  0  0  0  0  0
    4.3994   -6.9768    0.0000 C   0  0  0  0  0  0  0  0  0  0  0  0
    4.9395   -6.3532    0.0000 O   0  0  0  0  0  0  0  0  0  0  0  0
    3.5893   -6.8209    0.0000 O   0  0  0  0  0  0  0  0  0  0  0  0
    3.3193   -6.0414    0.0000 C   0  0  0  0  0  0  0  0  0  0  0  0
    2.5091   -5.8855    0.0000 C   0  0  0  0  0  0  0  0  0  0  0  0
    2.2391   -5.1059    0.0000 C   0  0  0  0  0  0  0  0  0  0  0  0
    1.4289   -4.9500    0.0000 C   0  0  0  0  0  0  0  0  0  0  0  0
    1.1589   -4.1704    0.0000 C   0  0  0  0  0  0  0  0  0  0  0  0
    0.3488   -4.0145    0.0000 C   0  0  0  0  0  0  0  0  0  0  0  0
    0.0787   -3.2350    0.0000 C   0  0  0  0  0  0  0  0  0  0  0  0
    0.6188   -2.6113    0.0000 C   0  0  0  0  0  0  0  0  0  0  0  0
    1.4289   -2.7673    0.0000 N   0  0  0  0  0  0  0  0  0  0  0  0
    1.6990   -3.5468    0.0000 C   0  0  0  0  0  0  0  0  0  0  0  0
    3.8593   -5.4177    0.0000 C   0  0  0  0  0  0  0  0  0  0  0  0
    4.6695   -5.5736    0.0000 C   0  0  0  0  0  0  0  0  0  0  0  0
    5.2096   -4.9500    0.0000 C   0  0  0  0  0  0  0  0  0  0  0  0
    6.0197   -5.1059    0.0000 C   0  0  0  0  0  0  0  0  0  0  0  0
    6.5598   -4.4823    0.0000 C   0  0  0  0  0  0  0  0  0  0  0  0
    7.3699   -4.6382    0.0000 C   0  0  0  0  0  0  0  0  0  0  0  0
    7.6400   -5.4177    0.0000 C   0  0  0  0  0  0  0  0  0  0  0  0
    7.0999   -6.0414    0.0000 N   0  0  0  0  0  0  0  0  0  0  0  0
    6.2897   -5.8855    0.0000 C   0  0  0  0  0  0  0  0  0  0  0  0
  1  2  1  0  0  0  0
  2  3  1  0  0  0  0
  3  4  2  0  0  0  0
  3 10  1  0  0  0  0
  4  5  1  0  0  0  0
  5  6  2  0  0  0  0
  5 13  1  0  0  0  0
  6  7  1  0  0  0  0
  7  8  1  0  0  0  0
  7 10  2  0  0  0  0
  8  9  1  0  0  0  0
 10 11  1  0  0  0  0
 11 12  1  0  0  0  0
 13 14  2  0  0  0  0
 13 15  1  0  0  0  0
 15 16  2  0  0  0  0
 15 17  1  0  0  0  0
 17 18  1  0  0  0  0
 17 22  1  0  0  0  0
 18 19  1  0  0  0  0
 19 20  1  0  0  0  0
 20 21  1  0  0  0  0
 21 22  1  0  0  0  0
 22 23  1  0  0  0  0
 23 24  2  0  0  0  0
 23 25  1  0  0  0  0
 25 26  1  0  0  0  0
 26 27  1  0  0  0  0
 26 36  1  0  0  0  0
 27 28  1  0  0  0  0
 28 29  1  0  0  0  0
 29 30  1  0  0  0  0
 30 31  2  0  0  0  0
 30 35  1  0  0  0  0
 31 32  1  0  0  0  0
 32 33  2  0  0  0  0
 33 34  1  0  0  0  0
 34 35  2  0  0  0  0
 36 37  1  0  0  0  0
 37 38  1  0  0  0  0
 38 39  1  0  0  0  0
 39 40  2  0  0  0  0
 39 44  1  0  0  0  0
 40 41  1  0  0  0  0
 41 42  2  0  0  0  0
 42 43  1  0  0  0  0
 43 44  2  0  0  0  0
M  END
$$$$

 OpenBabel12191814062D

 41 44  0  0  0  0  0  0  0  0999 V2000
   -0.0000    3.3000    0.0000 C   0  0  0  0  0  0  0  0  0  0  0  0
   -0.0000    2.4750    0.0000 O   0  0  0  0  0  0  0  0  0  0  0  0
   -0.7145    2.0625    0.0000 C   0  0  0  0  0  0  0  0  0  0  0  0
   -0.7145    1.2375    0.0000 C   0  0  0  0  0  0  0  0  0  0  0  0
   -1.4289    0.8250    0.0000 C   0  0  0  0  0  0  0  0  0  0  0  0
   -2.1434    1.2375    0.0000 C   0  0  0  0  0  0  0  0  0  0  0  0
   -2.1434    2.0625    0.0000 C   0  0  0  0  0  0  0  0  0  0  0  0
   -2.8579    2.4750    0.0000 O   0  0  0  0  0  0  0  0  0  0  0  0
   -2.8579    3.3000    0.0000 C   0  0  0  0  0  0  0  0  0  0  0  0
   -1.4289    2.4750    0.0000 C   0  0  0  0  0  0  0  0  0  0  0  0
   -1.4289    3.3000    0.0000 O   0  0  0  0  0  0  0  0  0  0  0  0
   -0.7145    3.7125    0.0000 C   0  0  0  0  0  0  0  0  0  0  0  0
   -1.4289   -0.0000    0.0000 C   0  0  0  0  0  0  0  0  0  0  0  0
   -2.1434   -0.4125    0.0000 O   0  0  0  0  0  0  0  0  0  0  0  0
   -0.7145   -0.4125    0.0000 O   0  0  0  0  0  0  0  0  0  0  0  0
   -0.7145   -1.2375    0.0000 C   0  0  3  0  0  0  0  0  0  0  0  0
   -1.4289   -1.6500    0.0000 C   0  0  0  0  0  0  0  0  0  0  0  0
   -1.4289   -2.4750    0.0000 N   0  0  0  0  0  0  0  0  0  0  0  0
   -0.7145   -2.8875    0.0000 C   0  0  0  0  0  0  0  0  0  0  0  0
   -0.7145   -3.7125    0.0000 C   0  0  0  0  0  0  0  0  0  0  0  0
   -1.4289   -4.1250    0.0000 O   0  0  0  0  0  0  0  0  0  0  0  0
   -2.1434   -3.7125    0.0000 C   0  0  0  0  0  0  0  0  0  0  0  0
   -2.1434   -2.8875    0.0000 C   0  0  0  0  0  0  0  0  0  0  0  0
    0.0000   -1.6500    0.0000 C   0  0  0  0  0  0  0  0  0  0  0  0
    0.7145   -1.2375    0.0000 N   0  0  0  0  0  0  0  0  0  0  0  0
    0.7145   -0.4125    0.0000 N   0  0  0  0  0  0  0  0  0  0  0  0
    1.4289    0.0000    0.0000 N   0  0  0  0  0  0  0  0  0  0  0  0
    2.1434   -0.4125    0.0000 C   0  0  0  0  0  0  0  0  0  0  0  0
    2.8579    0.0000    0.0000 C   0  0  0  0  0  0  0  0  0  0  0  0
    2.8579    0.8250    0.0000 O   0  0  0  0  0  0  0  0  0  0  0  0
    3.5724    1.2375    0.0000 C   0  0  0  0  0  0  0  0  0  0  0  0
    3.5724   -0.4125    0.0000 C   0  0  0  0  0  0  0  0  0  0  0  0
    4.2868   -0.0000    0.0000 O   0  0  0  0  0  0  0  0  0  0  0  0
    4.2868    0.8250    0.0000 C   0  0  0  0  0  0  0  0  0  0  0  0
    3.5724   -1.2375    0.0000 C   0  0  0  0  0  0  0  0  0  0  0  0
    4.2868   -1.6500    0.0000 O   0  0  0  0  0  0  0  0  0  0  0  0
    4.2868   -2.4750    0.0000 C   0  0  0  0  0  0  0  0  0  0  0  0
    2.8579   -1.6500    0.0000 C   0  0  0  0  0  0  0  0  0  0  0  0
    2.1434   -1.2375    0.0000 C   0  0  0  0  0  0  0  0  0  0  0  0
    1.4289   -1.6500    0.0000 C   0  0  0  0  0  0  0  0  0  0  0  0
    1.4289   -2.4750    0.0000 O   0  0  0  0  0  0  0  0  0  0  0  0
  1  2  1  0  0  0  0
  2  3  1  0  0  0  0
  3  4  2  0  0  0  0
  3 10  1  0  0  0  0
  4  5  1  0  0  0  0
  5  6  2  0  0  0  0
  5 13  1  0  0  0  0
  6  7  1  0  0  0  0
  7  8  1  0  0  0  0
  7 10  2  0  0  0  0
  8  9  1  0  0  0  0
 10 11  1  0  0  0  0
 11 12  1  0  0  0  0
 13 14  2  0  0  0  0
 13 15  1  0  0  0  0
 15 16  1  0  0  0  0
 16 17  1  0  0  0  0
 16 24  1  0  0  0  0
 17 18  1  0  0  0  0
 18 19  1  0  0  0  0
 18 23  1  0  0  0  0
 19 20  1  0  0  0  0
 20 21  1  0  0  0  0
 21 22  1  0  0  0  0
 22 23  1  0  0  0  0
 24 25  1  0  0  0  0
 25 26  1  0  0  0  0
 25 40  1  0  0  0  0
 26 27  2  0  0  0  0
 27 28  1  0  0  0  0
 28 29  2  0  0  0  0
 28 39  1  0  0  0  0
 29 30  1  0  0  0  0
 29 32  1  0  0  0  0
 30 31  1  0  0  0  0
 32 33  1  0  0  0  0
 32 35  2  0  0  0  0
 33 34  1  0  0  0  0
 35 36  1  0  0  0  0
 35 38  1  0  0  0  0
 36 37  1  0  0  0  0
 38 39  2  0  0  0  0
 39 40  1  0  0  0  0
 40 41  2  0  0  0  0
M  END
$$$$

 OpenBabel12191814062D

 46 51  0  0  0  0  0  0  0  0999 V2000
   -4.2868    9.9000    0.0000 C   0  0  0  0  0  0  0  0  0  0  0  0
   -3.5724    9.4875    0.0000 O   0  0  0  0  0  0  0  0  0  0  0  0
   -3.5724    8.6625    0.0000 C   0  0  0  0  0  0  0  0  0  0  0  0
   -2.8579    8.2500    0.0000 C   0  0  0  0  0  0  0  0  0  0  0  0
   -2.8579    7.4250    0.0000 C   0  0  0  0  0  0  0  0  0  0  0  0
   -3.5724    7.0125    0.0000 C   0  0  0  0  0  0  0  0  0  0  0  0
   -4.2868    7.4250    0.0000 C   0  0  0  0  0  0  0  0  0  0  0  0
   -5.0013    7.0125    0.0000 O   0  0  0  0  0  0  0  0  0  0  0  0
   -5.7158    7.4250    0.0000 C   0  0  0  0  0  0  0  0  0  0  0  0
   -4.2868    8.2500    0.0000 C   0  0  0  0  0  0  0  0  0  0  0  0
   -5.0013    8.6625    0.0000 O   0  0  0  0  0  0  0  0  0  0  0  0
   -5.0013    9.4875    0.0000 C   0  0  0  0  0  0  0  0  0  0  0  0
   -2.1434    7.0125    0.0000 C   0  0  0  0  0  0  0  0  0  0  0  0
   -2.1434    6.1875    0.0000 O   0  0  0  0  0  0  0  0  0  0  0  0
   -1.4289    7.4250    0.0000 O   0  0  0  0  0  0  0  0  0  0  0  0
   -0.7145    7.0125    0.0000 C   0  0  3  0  0  0  0  0  0  0  0  0
   -0.0000    7.4250    0.0000 C   0  0  0  0  0  0  0  0  0  0  0  0
    0.7145    7.0125    0.0000 C   0  0  0  0  0  0  0  0  0  0  0  0
    0.7145    6.1875    0.0000 C   0  0  3  0  0  0  0  0  0  0  0  0
   -0.0000    5.7750    0.0000 C   0  0  0  0  0  0  0  0  0  0  0  0
   -0.7145    6.1875    0.0000 C   0  0  0  0  0  0  0  0  0  0  0  0
    1.4289    5.7750    0.0000 N   0  0  0  0  0  0  0  0  0  0  0  0
    2.1434    6.1875    0.0000 C   0  0  0  0  0  0  0  0  0  0  0  0
    1.4289    4.9500    0.0000 C   0  0  3  0  0  0  0  0  0  0  0  0
    2.1434    4.5375    0.0000 C   0  0  0  0  0  0  0  0  0  0  0  0
    2.1434    3.7125    0.0000 C   0  0  0  0  0  0  0  0  0  0  0  0
    1.4289    3.3000    0.0000 C   0  0  3  0  0  0  0  0  0  0  0  0
    0.7145    3.7125    0.0000 C   0  0  0  0  0  0  0  0  0  0  0  0
    0.7145    4.5375    0.0000 C   0  0  0  0  0  0  0  0  0  0  0  0
    1.4289    2.4750    0.0000 O   0  0  0  0  0  0  0  0  0  0  0  0
    2.1434    2.0625    0.0000 C   0  0  0  0  0  0  0  0  0  0  0  0
    2.8579    2.4750    0.0000 O   0  0  0  0  0  0  0  0  0  0  0  0
    2.1434    1.2375    0.0000 C   0  0  0  0  0  0  0  0  0  0  0  0
    2.8579    0.8250    0.0000 C   0  0  0  0  0  0  0  0  0  0  0  0
    3.5724    1.2375    0.0000 C   0  0  0  0  0  0  0  0  0  0  0  0
    4.2868    0.8250    0.0000 C   0  0  0  0  0  0  0  0  0  0  0  0
    4.2868   -0.0000    0.0000 C   0  0  0  0  0  0  0  0  0  0  0  0
    3.5724   -0.4125    0.0000 C   0  0  0  0  0  0  0  0  0  0  0  0
    2.8579    0.0000    0.0000 C   0  0  0  0  0  0  0  0  0  0  0  0
    2.1434   -0.4125    0.0000 C   0  0  0  0  0  0  0  0  0  0  0  0
    1.4289    0.0000    0.0000 C   0  0  0  0  0  0  0  0  0  0  0  0
    0.7145   -0.4125    0.0000 C   0  0  0  0  0  0  0  0  0  0  0  0
    0.0000    0.0000    0.0000 C   0  0  0  0  0  0  0  0  0  0  0  0
    0.0000    0.8250    0.0000 C   0  0  0  0  0  0  0  0  0  0  0  0
    0.7145    1.2375    0.0000 C   0  0  0  0  0  0  0  0  0  0  0  0
    1.4289    0.8250    0.0000 C   0  0  0  0  0  0  0  0  0  0  0  0
  1  2  1  0  0  0  0
  2  3  1  0  0  0  0
  3  4  2  0  0  0  0
  3 10  1  0  0  0  0
  4  5  1  0  0  0  0
  5  6  2  0  0  0  0
  5 13  1  0  0  0  0
  6  7  1  0  0  0  0
  7  8  1  0  0  0  0
  7 10  2  0  0  0  0
  8  9  1  0  0  0  0
 10 11  1  0  0  0  0
 11 12  1  0  0  0  0
 13 14  2  0  0  0  0
 13 15  1  0  0  0  0
 15 16  1  0  0  0  0
 16 17  1  0  0  0  0
 16 21  1  0  0  0  0
 17 18  1  0  0  0  0
 18 19  1  0  0  0  0
 19 20  1  0  0  0  0
 19 22  1  0  0  0  0
 20 21  1  0  0  0  0
 22 23  1  0  0  0  0
 22 24  1  0  0  0  0
 24 25  1  0  0  0  0
 24 29  1  0  0  0  0
 25 26  1  0  0  0  0
 26 27  1  0  0  0  0
 27 28  1  0  0  0  0
 27 30  1  0  0  0  0
 28 29  1  0  0  0  0
 30 31  1  0  0  0  0
 31 32  2  0  0  0  0
 31 33  1  0  0  0  0
 33 34  2  0  0  0  0
 33 46  1  0  0  0  0
 34 35  1  0  0  0  0
 34 39  1  0  0  0  0
 35 36  2  0  0  0  0
 36 37  1  0  0  0  0
 37 38  2  0  0  0  0
 38 39  1  0  0  0  0
 39 40  2  0  0  0  0
 40 41  1  0  0  0  0
 41 42  2  0  0  0  0
 41 46  1  0  0  0  0
 42 43  1  0  0  0  0
 43 44  2  0  0  0  0
 44 45  1  0  0  0  0
 45 46  2  0  0  0  0
M  END
$$$$

 OpenBabel12191814062D

 40 43  0  0  0  0  0  0  0  0999 V2000
    2.8579    5.7750    0.0000 C   0  0  0  0  0  0  0  0  0  0  0  0
    3.5724    6.1875    0.0000 O   0  0  0  0  0  0  0  0  0  0  0  0
    4.2868    5.7750    0.0000 C   0  0  0  0  0  0  0  0  0  0  0  0
    5.0013    6.1875    0.0000 C   0  0  0  0  0  0  0  0  0  0  0  0
    5.7158    5.7750    0.0000 C   0  0  0  0  0  0  0  0  0  0  0  0
    5.7158    4.9500    0.0000 C   0  0  0  0  0  0  0  0  0  0  0  0
    5.0013    4.5375    0.0000 C   0  0  0  0  0  0  0  0  0  0  0  0
    5.0013    3.7125    0.0000 O   0  0  0  0  0  0  0  0  0  0  0  0
    4.2868    3.3000    0.0000 C   0  0  0  0  0  0  0  0  0  0  0  0
    4.2868    4.9500    0.0000 C   0  0  0  0  0  0  0  0  0  0  0  0
    3.5724    4.5375    0.0000 O   0  0  0  0  0  0  0  0  0  0  0  0
    2.8579    4.9500    0.0000 C   0  0  0  0  0  0  0  0  0  0  0  0
    6.4302    6.1875    0.0000 C   0  0  0  0  0  0  0  0  0  0  0  0
    6.4302    7.0125    0.0000 O   0  0  0  0  0  0  0  0  0  0  0  0
    7.1447    5.7750    0.0000 O   0  0  0  0  0  0  0  0  0  0  0  0
    7.8592    6.1875    0.0000 C   0  0  0  0  0  0  0  0  0  0  0  0
    8.5737    5.7750    0.0000 C   0  0  0  0  0  0  0  0  0  0  0  0
    9.2881    6.1875    0.0000 C   0  0  0  0  0  0  0  0  0  0  0  0
   10.0026    5.7750    0.0000 N   0  0  0  0  0  0  0  0  0  0  0  0
   10.0026    4.9500    0.0000 C   0  0  0  0  0  0  0  0  0  0  0  0
   10.7171    6.1875    0.0000 C   0  0  0  0  0  0  0  0  0  0  0  0
   11.4315    5.7750    0.0000 C   0  0  0  0  0  0  0  0  0  0  0  0
   12.1460    6.1875    0.0000 C   0  0  0  0  0  0  0  0  0  0  0  0
   12.8605    5.7750    0.0000 O   0  0  0  0  0  0  0  0  0  0  0  0
   13.5749    6.1875    0.0000 C   0  0  0  0  0  0  0  0  0  0  0  0
   13.5749    7.0125    0.0000 O   0  0  0  0  0  0  0  0  0  0  0  0
   14.2894    5.7750    0.0000 C   0  0  0  0  0  0  0  0  0  0  0  0
   15.0039    6.1875    0.0000 C   0  0  0  0  0  0  0  0  0  0  0  0
   15.0039    7.0125    0.0000 C   0  0  0  0  0  0  0  0  0  0  0  0
   15.7184    7.4250    0.0000 C   0  0  0  0  0  0  0  0  0  0  0  0
   16.4328    7.0125    0.0000 C   0  0  0  0  0  0  0  0  0  0  0  0
   16.4328    6.1875    0.0000 C   0  0  0  0  0  0  0  0  0  0  0  0
   15.7184    5.7750    0.0000 C   0  0  0  0  0  0  0  0  0  0  0  0
   15.7184    4.9500    0.0000 C   0  0  0  0  0  0  0  0  0  0  0  0
   15.0039    4.5375    0.0000 C   0  0  0  0  0  0  0  0  0  0  0  0
   15.0039    3.7125    0.0000 C   0  0  0  0  0  0  0  0  0  0  0  0
   14.2894    3.3000    0.0000 C   0  0  0  0  0  0  0  0  0  0  0  0
   13.5749    3.7125    0.0000 C   0  0  0  0  0  0  0  0  0  0  0  0
   13.5749    4.5375    0.0000 C   0  0  0  0  0  0  0  0  0  0  0  0
   14.2894    4.9500    0.0000 C   0  0  0  0  0  0  0  0  0  0  0  0
  1  2  1  0  0  0  0
  2  3  1  0  0  0  0
  3  4  2  0  0  0  0
  3 10  1  0  0  0  0
  4  5  1  0  0  0  0
  5  6  2  0  0  0  0
  5 13  1  0  0  0  0
  6  7  1  0  0  0  0
  7  8  1  0  0  0  0
  7 10  2  0  0  0  0
  8  9  1  0  0  0  0
 10 11  1  0  0  0  0
 11 12  1  0  0  0  0
 13 14  2  0  0  0  0
 13 15  1  0  0  0  0
 15 16  1  0  0  0  0
 16 17  1  0  0  0  0
 17 18  1  0  0  0  0
 18 19  1  0  0  0  0
 19 20  1  0  0  0  0
 19 21  1  0  0  0  0
 21 22  1  0  0  0  0
 22 23  1  0  0  0  0
 23 24  1  0  0  0  0
 24 25  1  0  0  0  0
 25 26  2  0  0  0  0
 25 27  1  0  0  0  0
 27 28  2  0  0  0  0
 27 40  1  0  0  0  0
 28 29  1  0  0  0  0
 28 33  1  0  0  0  0
 29 30  2  0  0  0  0
 30 31  1  0  0  0  0
 31 32  2  0  0  0  0
 32 33  1  0  0  0  0
 33 34  2  0  0  0  0
 34 35  1  0  0  0  0
 35 36  2  0  0  0  0
 35 40  1  0  0  0  0
 36 37  1  0  0  0  0
 37 38  2  0  0  0  0
 38 39  1  0  0  0  0
 39 40  2  0  0  0  0
M  END
$$$$

 OpenBabel12191814062D

 42 43  0  0  0  0  0  0  0  0999 V2000
    2.1434   -6.1875    0.0000 C   0  0  0  0  0  0  0  0  0  0  0  0
    2.8579   -6.6000    0.0000 O   0  0  0  0  0  0  0  0  0  0  0  0
    2.8579   -7.4250    0.0000 C   0  0  0  0  0  0  0  0  0  0  0  0
    3.5724   -7.8375    0.0000 C   0  0  0  0  0  0  0  0  0  0  0  0
    3.5724   -8.6625    0.0000 C   0  0  0  0  0  0  0  0  0  0  0  0
    2.8579   -9.0750    0.0000 C   0  0  0  0  0  0  0  0  0  0  0  0
    2.1434   -8.6625    0.0000 C   0  0  0  0  0  0  0  0  0  0  0  0
    1.4289   -9.0750    0.0000 O   0  0  0  0  0  0  0  0  0  0  0  0
    0.7145   -8.6625    0.0000 C   0  0  0  0  0  0  0  0  0  0  0  0
    2.1434   -7.8375    0.0000 C   0  0  0  0  0  0  0  0  0  0  0  0
    1.4289   -7.4250    0.0000 O   0  0  0  0  0  0  0  0  0  0  0  0
    1.4289   -6.6000    0.0000 C   0  0  0  0  0  0  0  0  0  0  0  0
    4.2868   -9.0750    0.0000 C   0  0  0  0  0  0  0  0  0  0  0  0
    4.2868   -9.9000    0.0000 O   0  0  0  0  0  0  0  0  0  0  0  0
    5.0013   -8.6625    0.0000 O   0  0  0  0  0  0  0  0  0  0  0  0
    5.7158   -9.0750    0.0000 C   0  0  0  0  0  0  0  0  0  0  0  0
    6.4302   -8.6625    0.0000 C   0  0  0  0  0  0  0  0  0  0  0  0
    7.1447   -9.0750    0.0000 C   0  0  0  0  0  0  0  0  0  0  0  0
    7.8592   -8.6625    0.0000 N   0  0  0  0  0  0  0  0  0  0  0  0
    7.8592   -7.8375    0.0000 C   0  0  0  0  0  0  0  0  0  0  0  0
    8.5737   -9.0750    0.0000 C   0  0  0  0  0  0  0  0  0  0  0  0
    9.2881   -8.6625    0.0000 C   0  0  0  0  0  0  0  0  0  0  0  0
   10.0026   -9.0750    0.0000 N   0  0  0  0  0  0  0  0  0  0  0  0
   10.0026   -9.9000    0.0000 C   0  0  0  0  0  0  0  0  0  0  0  0
   10.7171   -8.6625    0.0000 C   0  0  0  0  0  0  0  0  0  0  0  0
   11.4315   -9.0750    0.0000 C   0  0  0  0  0  0  0  0  0  0  0  0
   12.1460   -8.6625    0.0000 C   0  0  0  0  0  0  0  0  0  0  0  0
   12.8605   -9.0750    0.0000 O   0  0  0  0  0  0  0  0  0  0  0  0
   13.5749   -8.6625    0.0000 C   0  0  0  0  0  0  0  0  0  0  0  0
   13.5749   -7.8375    0.0000 O   0  0  0  0  0  0  0  0  0  0  0  0
   14.2894   -9.0750    0.0000 C   0  0  0  0  0  0  0  0  0  0  0  0
   15.0039   -8.6625    0.0000 C   0  0  0  0  0  0  0  0  0  0  0  0
   15.7184   -9.0750    0.0000 C   0  0  0  0  0  0  0  0  0  0  0  0
   16.4328   -8.6625    0.0000 O   0  0  0  0  0  0  0  0  0  0  0  0
   17.1473   -9.0750    0.0000 C   0  0  0  0  0  0  0  0  0  0  0  0
   15.7184   -9.9000    0.0000 C   0  0  0  0  0  0  0  0  0  0  0  0
   16.4328  -10.3125    0.0000 O   0  0  0  0  0  0  0  0  0  0  0  0
   17.1473   -9.9000    0.0000 C   0  0  0  0  0  0  0  0  0  0  0  0
   15.0039  -10.3125    0.0000 C   0  0  0  0  0  0  0  0  0  0  0  0
   15.0039  -11.1375    0.0000 O   0  0  0  0  0  0  0  0  0  0  0  0
   14.2894  -11.5500    0.0000 C   0  0  0  0  0  0  0  0  0  0  0  0
   14.2894   -9.9000    0.0000 C   0  0  0  0  0  0  0  0  0  0  0  0
  1  2  1  0  0  0  0
  2  3  1  0  0  0  0
  3  4  2  0  0  0  0
  3 10  1  0  0  0  0
  4  5  1  0  0  0  0
  5  6  2  0  0  0  0
  5 13  1  0  0  0  0
  6  7  1  0  0  0  0
  7  8  1  0  0  0  0
  7 10  2  0  0  0  0
  8  9  1  0  0  0  0
 10 11  1  0  0  0  0
 11 12  1  0  0  0  0
 13 14  2  0  0  0  0
 13 15  1  0  0  0  0
 15 16  1  0  0  0  0
 16 17  1  0  0  0  0
 17 18  1  0  0  0  0
 18 19  1  0  0  0  0
 19 20  1  0  0  0  0
 19 21  1  0  0  0  0
 21 22  1  0  0  0  0
 22 23  1  0  0  0  0
 23 24  1  0  0  0  0
 23 25  1  0  0  0  0
 25 26  1  0  0  0  0
 26 27  1  0  0  0  0
 27 28  1  0  0  0  0
 28 29  1  0  0  0  0
 29 30  2  0  0  0  0
 29 31  1  0  0  0  0
 31 32  2  0  0  0  0
 31 42  1  0  0  0  0
 32 33  1  0  0  0  0
 33 34  1  0  0  0  0
 33 36  2  0  0  0  0
 34 35  1  0  0  0  0
 36 37  1  0  0  0  0
 36 39  1  0  0  0  0
 37 38  1  0  0  0  0
 39 40  1  0  0  0  0
 39 42  2  0  0  0  0
 40 41  1  0  0  0  0
M  END
$$$$

 OpenBabel12191814062D

 43 45  0  0  0  0  0  0  0  0999 V2000
   -6.3333   -0.1226    0.0000 C   0  0  0  0  0  0  0  0  0  0  0  0
   -5.5106   -0.1843    0.0000 O   0  0  0  0  0  0  0  0  0  0  0  0
   -5.1526   -0.9276    0.0000 C   0  0  0  0  0  0  0  0  0  0  0  0
   -4.3299   -0.9893    0.0000 C   0  0  0  0  0  0  0  0  0  0  0  0
   -3.9720   -1.7325    0.0000 C   0  0  0  0  0  0  0  0  0  0  0  0
   -4.4367   -2.4142    0.0000 C   0  0  0  0  0  0  0  0  0  0  0  0
   -5.2594   -2.3525    0.0000 C   0  0  0  0  0  0  0  0  0  0  0  0
   -5.7241   -3.0342    0.0000 O   0  0  0  0  0  0  0  0  0  0  0  0
   -6.5468   -2.9725    0.0000 C   0  0  0  0  0  0  0  0  0  0  0  0
   -5.6173   -1.6092    0.0000 C   0  0  0  0  0  0  0  0  0  0  0  0
   -6.4400   -1.5476    0.0000 O   0  0  0  0  0  0  0  0  0  0  0  0
   -6.7980   -0.8043    0.0000 C   0  0  0  0  0  0  0  0  0  0  0  0
   -3.1493   -1.7942    0.0000 C   0  0  0  0  0  0  0  0  0  0  0  0
   -2.7913   -2.5375    0.0000 O   0  0  0  0  0  0  0  0  0  0  0  0
   -2.6845   -1.1126    0.0000 O   0  0  0  0  0  0  0  0  0  0  0  0
   -1.8618   -1.1742    0.0000 C   0  0  0  0  0  0  0  0  0  0  0  0
   -1.3971   -0.4926    0.0000 C   0  0  0  0  0  0  0  0  0  0  0  0
   -0.5744   -0.5542    0.0000 C   0  0  0  0  0  0  0  0  0  0  0  0
   -0.1097    0.1274    0.0000 N   0  0  0  0  0  0  0  0  0  0  0  0
   -0.5222    0.8419    0.0000 C   0  0  0  0  0  0  0  0  0  0  0  0
   -0.2208    1.6099    0.0000 C   0  0  0  0  0  0  0  0  0  0  0  0
    0.5676    1.8530    0.0000 C   0  0  0  0  0  0  0  0  0  0  0  0
    1.2492    1.3883    0.0000 N   0  0  0  0  0  0  0  0  0  0  0  0
    1.9637    1.8008    0.0000 C   0  0  0  0  0  0  0  0  0  0  0  0
    2.6782    1.3883    0.0000 C   0  0  0  0  0  0  0  0  0  0  0  0
    3.3926    1.8008    0.0000 C   0  0  0  0  0  0  0  0  0  0  0  0
    4.1071    1.3883    0.0000 O   0  0  0  0  0  0  0  0  0  0  0  0
    4.8216    1.8008    0.0000 C   0  0  0  0  0  0  0  0  0  0  0  0
    4.8216    2.6258    0.0000 O   0  0  0  0  0  0  0  0  0  0  0  0
    5.5361    1.3883    0.0000 C   0  0  0  0  0  0  0  0  0  0  0  0
    6.2505    1.8008    0.0000 C   0  0  0  0  0  0  0  0  0  0  0  0
    6.9650    1.3883    0.0000 C   0  0  0  0  0  0  0  0  0  0  0  0
    7.6795    1.8008    0.0000 O   0  0  0  0  0  0  0  0  0  0  0  0
    8.3939    1.3883    0.0000 C   0  0  0  0  0  0  0  0  0  0  0  0
    6.9650    0.5633    0.0000 C   0  0  0  0  0  0  0  0  0  0  0  0
    7.6795    0.1508    0.0000 O   0  0  0  0  0  0  0  0  0  0  0  0
    8.3939    0.5633    0.0000 C   0  0  0  0  0  0  0  0  0  0  0  0
    6.2505    0.1508    0.0000 C   0  0  0  0  0  0  0  0  0  0  0  0
    6.2505   -0.6742    0.0000 O   0  0  0  0  0  0  0  0  0  0  0  0
    5.5361   -1.0867    0.0000 C   0  0  0  0  0  0  0  0  0  0  0  0
    5.5361    0.5633    0.0000 C   0  0  0  0  0  0  0  0  0  0  0  0
    1.3109    0.5656    0.0000 C   0  0  0  0  0  0  0  0  0  0  0  0
    0.7061    0.0045    0.0000 C   0  0  0  0  0  0  0  0  0  0  0  0
  1  2  1  0  0  0  0
  2  3  1  0  0  0  0
  3  4  2  0  0  0  0
  3 10  1  0  0  0  0
  4  5  1  0  0  0  0
  5  6  2  0  0  0  0
  5 13  1  0  0  0  0
  6  7  1  0  0  0  0
  7  8  1  0  0  0  0
  7 10  2  0  0  0  0
  8  9  1  0  0  0  0
 10 11  1  0  0  0  0
 11 12  1  0  0  0  0
 13 14  2  0  0  0  0
 13 15  1  0  0  0  0
 15 16  1  0  0  0  0
 16 17  1  0  0  0  0
 17 18  1  0  0  0  0
 18 19  1  0  0  0  0
 19 20  1  0  0  0  0
 19 43  1  0  0  0  0
 20 21  1  0  0  0  0
 21 22  1  0  0  0  0
 22 23  1  0  0  0  0
 23 24  1  0  0  0  0
 23 42  1  0  0  0  0
 24 25  1  0  0  0  0
 25 26  1  0  0  0  0
 26 27  1  0  0  0  0
 27 28  1  0  0  0  0
 28 29  2  0  0  0  0
 28 30  1  0  0  0  0
 30 31  2  0  0  0  0
 30 41  1  0  0  0  0
 31 32  1  0  0  0  0
 32 33  1  0  0  0  0
 32 35  2  0  0  0  0
 33 34  1  0  0  0  0
 35 36  1  0  0  0  0
 35 38  1  0  0  0  0
 36 37  1  0  0  0  0
 38 39  1  0  0  0  0
 38 41  2  0  0  0  0
 39 40  1  0  0  0  0
 42 43  1  0  0  0  0
M  END
$$$$

 OpenBabel12191814062D

 34 36  0  0  0  0  0  0  0  0999 V2000
   -8.5737   -1.6500    0.0000 C   0  0  0  0  0  0  0  0  0  0  0  0
   -7.8592   -1.2375    0.0000 O   0  0  0  0  0  0  0  0  0  0  0  0
   -7.1447   -1.6500    0.0000 C   0  0  0  0  0  0  0  0  0  0  0  0
   -6.4302   -1.2375    0.0000 C   0  0  0  0  0  0  0  0  0  0  0  0
   -5.7158   -1.6500    0.0000 C   0  0  0  0  0  0  0  0  0  0  0  0
   -5.7158   -2.4750    0.0000 C   0  0  0  0  0  0  0  0  0  0  0  0
   -6.4302   -2.8875    0.0000 C   0  0  0  0  0  0  0  0  0  0  0  0
   -6.4302   -3.7125    0.0000 O   0  0  0  0  0  0  0  0  0  0  0  0
   -7.1447   -4.1250    0.0000 C   0  0  0  0  0  0  0  0  0  0  0  0
   -7.1447   -2.4750    0.0000 C   0  0  0  0  0  0  0  0  0  0  0  0
   -7.8592   -2.8875    0.0000 O   0  0  0  0  0  0  0  0  0  0  0  0
   -8.5737   -2.4750    0.0000 C   0  0  0  0  0  0  0  0  0  0  0  0
   -5.0013   -1.2375    0.0000 C   0  0  0  0  0  0  0  0  0  0  0  0
   -5.0013   -0.4125    0.0000 O   0  0  0  0  0  0  0  0  0  0  0  0
   -4.2868   -1.6500    0.0000 O   0  0  0  0  0  0  0  0  0  0  0  0
   -3.5724   -1.2375    0.0000 C   0  0  0  0  0  0  0  0  0  0  0  0
   -2.8579   -1.6500    0.0000 C   0  0  0  0  0  0  0  0  0  0  0  0
   -2.1434   -1.2375    0.0000 C   0  0  0  0  0  0  0  0  0  0  0  0
   -1.4289   -1.6500    0.0000 N   0  0  0  0  0  0  0  0  0  0  0  0
   -0.7145   -1.2375    0.0000 C   0  0  0  0  0  0  0  0  0  0  0  0
    0.0000   -1.6500    0.0000 C   0  0  0  0  0  0  0  0  0  0  0  0
    0.7145   -1.2375    0.0000 C   0  0  0  0  0  0  0  0  0  0  0  0
    1.4289   -1.6500    0.0000 C   0  0  0  0  0  0  0  0  0  0  0  0
    2.1434   -1.2375    0.0000 C   0  0  0  0  0  0  0  0  0  0  0  0
    2.8579   -1.6500    0.0000 C   0  0  0  0  0  0  0  0  0  0  0  0
    2.8579   -2.4750    0.0000 C   0  0  0  0  0  0  0  0  0  0  0  0
    2.1434   -2.8875    0.0000 C   0  0  0  0  0  0  0  0  0  0  0  0
    1.4289   -2.4750    0.0000 C   0  0  0  0  0  0  0  0  0  0  0  0
    0.7145   -0.4125    0.0000 C   0  0  0  0  0  0  0  0  0  0  0  0
    0.0000   -0.0000    0.0000 C   0  0  0  0  0  0  0  0  0  0  0  0
    0.0000    0.8250    0.0000 C   0  0  0  0  0  0  0  0  0  0  0  0
    0.7145    1.2375    0.0000 C   0  0  0  0  0  0  0  0  0  0  0  0
    1.4289    0.8250    0.0000 C   0  0  0  0  0  0  0  0  0  0  0  0
    1.4289   -0.0000    0.0000 C   0  0  0  0  0  0  0  0  0  0  0  0
  1  2  1  0  0  0  0
  2  3  1  0  0  0  0
  3  4  2  0  0  0  0
  3 10  1  0  0  0  0
  4  5  1  0  0  0  0
  5  6  2  0  0  0  0
  5 13  1  0  0  0  0
  6  7  1  0  0  0  0
  7  8  1  0  0  0  0
  7 10  2  0  0  0  0
  8  9  1  0  0  0  0
 10 11  1  0  0  0  0
 11 12  1  0  0  0  0
 13 14  2  0  0  0  0
 13 15  1  0  0  0  0
 15 16  1  0  0  0  0
 16 17  1  0  0  0  0
 17 18  1  0  0  0  0
 18 19  1  0  0  0  0
 19 20  1  0  0  0  0
 20 21  1  0  0  0  0
 21 22  1  0  0  0  0
 22 23  1  0  0  0  0
 22 29  1  0  0  0  0
 23 24  2  0  0  0  0
 23 28  1  0  0  0  0
 24 25  1  0  0  0  0
 25 26  2  0  0  0  0
 26 27  1  0  0  0  0
 27 28  2  0  0  0  0
 29 30  2  0  0  0  0
 29 34  1  0  0  0  0
 30 31  1  0  0  0  0
 31 32  2  0  0  0  0
 32 33  1  0  0  0  0
 33 34  2  0  0  0  0
M  END
$$$$

 OpenBabel12191814062D

 41 45  0  0  0  0  0  0  0  0999 V2000
   -5.7158    7.4250    0.0000 C   0  0  0  0  0  0  0  0  0  0  0  0
   -5.0013    7.0125    0.0000 O   0  0  0  0  0  0  0  0  0  0  0  0
   -5.0013    6.1875    0.0000 C   0  0  0  0  0  0  0  0  0  0  0  0
   -4.2868    5.7750    0.0000 C   0  0  0  0  0  0  0  0  0  0  0  0
   -4.2868    4.9500    0.0000 C   0  0  0  0  0  0  0  0  0  0  0  0
   -5.0013    4.5375    0.0000 C   0  0  0  0  0  0  0  0  0  0  0  0
   -5.7158    4.9500    0.0000 C   0  0  0  0  0  0  0  0  0  0  0  0
   -6.4302    4.5375    0.0000 O   0  0  0  0  0  0  0  0  0  0  0  0
   -7.1447    4.9500    0.0000 C   0  0  0  0  0  0  0  0  0  0  0  0
   -5.7158    5.7750    0.0000 C   0  0  0  0  0  0  0  0  0  0  0  0
   -6.4302    6.1875    0.0000 O   0  0  0  0  0  0  0  0  0  0  0  0
   -6.4302    7.0125    0.0000 C   0  0  0  0  0  0  0  0  0  0  0  0
   -3.5724    4.5375    0.0000 C   0  0  0  0  0  0  0  0  0  0  0  0
   -3.5724    3.7125    0.0000 O   0  0  0  0  0  0  0  0  0  0  0  0
   -2.8579    4.9500    0.0000 O   0  0  0  0  0  0  0  0  0  0  0  0
   -2.1434    4.5375    0.0000 C   0  0  0  0  0  0  0  0  0  0  0  0
   -1.4289    4.9500    0.0000 C   0  0  0  0  0  0  0  0  0  0  0  0
   -0.7145    4.5375    0.0000 N   0  0  0  0  0  0  0  0  0  0  0  0
   -0.0000    4.9500    0.0000 C   0  0  0  0  0  0  0  0  0  0  0  0
    0.7145    4.5375    0.0000 C   0  0  0  0  0  0  0  0  0  0  0  0
    0.7145    3.7125    0.0000 N   0  0  0  0  0  0  0  0  0  0  0  0
    1.4289    3.3000    0.0000 C   0  0  0  0  0  0  0  0  0  0  0  0
    1.4289    2.4750    0.0000 C   0  0  0  0  0  0  0  0  0  0  0  0
    2.1434    2.0625    0.0000 C   0  0  0  0  0  0  0  0  0  0  0  0
    2.1434    1.2375    0.0000 N   0  0  0  0  0  0  0  0  0  0  0  0
    2.8579    0.8250    0.0000 C   0  0  0  0  0  0  0  0  0  0  0  0
    3.5724    1.2375    0.0000 C   0  0  0  0  0  0  0  0  0  0  0  0
    4.2868    0.8250    0.0000 C   0  0  0  0  0  0  0  0  0  0  0  0
    4.2868   -0.0000    0.0000 C   0  0  0  0  0  0  0  0  0  0  0  0
    3.5724   -0.4125    0.0000 C   0  0  0  0  0  0  0  0  0  0  0  0
    2.8579    0.0000    0.0000 C   0  0  0  0  0  0  0  0  0  0  0  0
    2.1434   -0.4125    0.0000 S   0  0  0  0  0  0  0  0  0  0  0  0
    1.4289    0.0000    0.0000 C   0  0  0  0  0  0  0  0  0  0  0  0
    0.7145   -0.4125    0.0000 C   0  0  0  0  0  0  0  0  0  0  0  0
    0.0000    0.0000    0.0000 C   0  0  0  0  0  0  0  0  0  0  0  0
    0.0000    0.8250    0.0000 C   0  0  0  0  0  0  0  0  0  0  0  0
   -0.7145    1.2375    0.0000 Cl  0  0  0  0  0  0  0  0  0  0  0  0
    0.7145    1.2375    0.0000 C   0  0  0  0  0  0  0  0  0  0  0  0
    1.4289    0.8250    0.0000 C   0  0  0  0  0  0  0  0  0  0  0  0
   -0.0000    3.3000    0.0000 C   0  0  0  0  0  0  0  0  0  0  0  0
   -0.7145    3.7125    0.0000 C   0  0  0  0  0  0  0  0  0  0  0  0
  1  2  1  0  0  0  0
  2  3  1  0  0  0  0
  3  4  2  0  0  0  0
  3 10  1  0  0  0  0
  4  5  1  0  0  0  0
  5  6  2  0  0  0  0
  5 13  1  0  0  0  0
  6  7  1  0  0  0  0
  7  8  1  0  0  0  0
  7 10  2  0  0  0  0
  8  9  1  0  0  0  0
 10 11  1  0  0  0  0
 11 12  1  0  0  0  0
 13 14  2  0  0  0  0
 13 15  1  0  0  0  0
 15 16  1  0  0  0  0
 16 17  1  0  0  0  0
 17 18  1  0  0  0  0
 18 19  1  0  0  0  0
 18 41  1  0  0  0  0
 19 20  1  0  0  0  0
 20 21  1  0  0  0  0
 21 22  1  0  0  0  0
 21 40  1  0  0  0  0
 22 23  1  0  0  0  0
 23 24  1  0  0  0  0
 24 25  1  0  0  0  0
 25 26  1  0  0  0  0
 25 39  1  0  0  0  0
 26 27  2  0  0  0  0
 26 31  1  0  0  0  0
 27 28  1  0  0  0  0
 28 29  2  0  0  0  0
 29 30  1  0  0  0  0
 30 31  2  0  0  0  0
 31 32  1  0  0  0  0
 32 33  1  0  0  0  0
 33 34  2  0  0  0  0
 33 39  1  0  0  0  0
 34 35  1  0  0  0  0
 35 36  2  0  0  0  0
 36 37  1  0  0  0  0
 36 38  1  0  0  0  0
 38 39  2  0  0  0  0
 40 41  1  0  0  0  0
M  END
$$$$

 OpenBabel12191814062D

 29 31  0  0  0  0  0  0  0  0999 V2000
   -2.8579   -1.6500    0.0000 C   0  0  0  0  0  0  0  0  0  0  0  0
   -2.1434   -1.2375    0.0000 O   0  0  0  0  0  0  0  0  0  0  0  0
   -1.4289   -1.6500    0.0000 C   0  0  0  0  0  0  0  0  0  0  0  0
   -0.7145   -1.2375    0.0000 C   0  0  0  0  0  0  0  0  0  0  0  0
    0.0000   -1.6500    0.0000 C   0  0  0  0  0  0  0  0  0  0  0  0
    0.0000   -2.4750    0.0000 C   0  0  0  0  0  0  0  0  0  0  0  0
   -0.7145   -2.8875    0.0000 C   0  0  0  0  0  0  0  0  0  0  0  0
   -0.7145   -3.7125    0.0000 O   0  0  0  0  0  0  0  0  0  0  0  0
   -1.4289   -4.1250    0.0000 C   0  0  0  0  0  0  0  0  0  0  0  0
   -1.4289   -2.4750    0.0000 C   0  0  0  0  0  0  0  0  0  0  0  0
   -2.1434   -2.8875    0.0000 O   0  0  0  0  0  0  0  0  0  0  0  0
   -2.8579   -2.4750    0.0000 C   0  0  0  0  0  0  0  0  0  0  0  0
    0.7145   -1.2375    0.0000 C   0  0  0  0  0  0  0  0  0  0  0  0
    0.7145   -0.4125    0.0000 C   0  0  0  0  0  0  0  0  0  0  0  0
    1.4289    0.0000    0.0000 C   0  0  0  0  0  0  0  0  0  0  0  0
    1.4289    0.8250    0.0000 O   0  0  0  0  0  0  0  0  0  0  0  0
    2.1434   -0.4125    0.0000 C   0  0  0  0  0  0  0  0  0  0  0  0
    2.8579    0.0000    0.0000 C   0  0  0  0  0  0  0  0  0  0  0  0
    2.8579    0.8250    0.0000 O   0  0  0  0  0  0  0  0  0  0  0  0
    3.5724    1.2375    0.0000 C   0  0  0  0  0  0  0  0  0  0  0  0
    3.5724   -0.4125    0.0000 C   0  0  0  0  0  0  0  0  0  0  0  0
    4.2868   -0.0000    0.0000 O   0  0  0  0  0  0  0  0  0  0  0  0
    4.2868    0.8250    0.0000 C   0  0  0  0  0  0  0  0  0  0  0  0
    3.5724   -1.2375    0.0000 C   0  0  0  0  0  0  0  0  0  0  0  0
    4.2868   -1.6500    0.0000 O   0  0  0  0  0  0  0  0  0  0  0  0
    4.2868   -2.4750    0.0000 C   0  0  0  0  0  0  0  0  0  0  0  0
    2.8579   -1.6500    0.0000 C   0  0  0  0  0  0  0  0  0  0  0  0
    2.1434   -1.2375    0.0000 C   0  0  0  0  0  0  0  0  0  0  0  0
    1.4289   -1.6500    0.0000 O   0  0  0  0  0  0  0  0  0  0  0  0
  1  2  1  0  0  0  0
  2  3  1  0  0  0  0
  3  4  2  0  0  0  0
  3 10  1  0  0  0  0
  4  5  1  0  0  0  0
  5  6  2  0  0  0  0
  5 13  1  0  0  0  0
  6  7  1  0  0  0  0
  7  8  1  0  0  0  0
  7 10  2  0  0  0  0
  8  9  1  0  0  0  0
 10 11  1  0  0  0  0
 11 12  1  0  0  0  0
 13 14  2  0  0  0  0
 13 29  1  0  0  0  0
 14 15  1  0  0  0  0
 15 16  2  0  0  0  0
 15 17  1  0  0  0  0
 17 18  2  0  0  0  0
 17 28  1  0  0  0  0
 18 19  1  0  0  0  0
 18 21  1  0  0  0  0
 19 20  1  0  0  0  0
 21 22  1  0  0  0  0
 21 24  2  0  0  0  0
 22 23  1  0  0  0  0
 24 25  1  0  0  0  0
 24 27  1  0  0  0  0
 25 26  1  0  0  0  0
 27 28  2  0  0  0  0
 28 29  1  0  0  0  0
M  END
$$$$

 OpenBabel12191814062D

 26 28  0  0  0  0  0  0  0  0999 V2000
   -1.4289    2.4750    0.0000 C   0  0  0  0  0  0  0  0  0  0  0  0
   -0.7145    2.0625    0.0000 O   0  0  0  0  0  0  0  0  0  0  0  0
   -0.7145    1.2375    0.0000 C   0  0  0  0  0  0  0  0  0  0  0  0
    0.0000    0.8250    0.0000 C   0  0  0  0  0  0  0  0  0  0  0  0
    0.0000    0.0000    0.0000 C   0  0  0  0  0  0  0  0  0  0  0  0
   -0.7145   -0.4125    0.0000 C   0  0  0  0  0  0  0  0  0  0  0  0
   -1.4289   -0.0000    0.0000 C   0  0  0  0  0  0  0  0  0  0  0  0
   -2.1434   -0.4125    0.0000 O   0  0  0  0  0  0  0  0  0  0  0  0
   -2.8579   -0.0000    0.0000 C   0  0  0  0  0  0  0  0  0  0  0  0
   -1.4289    0.8250    0.0000 C   0  0  0  0  0  0  0  0  0  0  0  0
   -2.1434    1.2375    0.0000 O   0  0  0  0  0  0  0  0  0  0  0  0
   -2.1434    2.0625    0.0000 C   0  0  0  0  0  0  0  0  0  0  0  0
    0.7145   -0.4125    0.0000 C   0  0  0  0  0  0  0  0  0  0  0  0
    1.4289    0.0000    0.0000 O   0  0  0  0  0  0  0  0  0  0  0  0
    2.1434   -0.4125    0.0000 C   0  0  0  0  0  0  0  0  0  0  0  0
    2.8579    0.0000    0.0000 C   0  0  0  0  0  0  0  0  0  0  0  0
    3.5724   -0.4125    0.0000 C   0  0  0  0  0  0  0  0  0  0  0  0
    4.2868   -0.0000    0.0000 O   0  0  0  0  0  0  0  0  0  0  0  0
    3.5724   -1.2375    0.0000 C   0  0  0  0  0  0  0  0  0  0  0  0
    2.8579   -1.6500    0.0000 C   0  0  0  0  0  0  0  0  0  0  0  0
    2.8579   -2.4750    0.0000 O   0  0  0  0  0  0  0  0  0  0  0  0
    2.1434   -1.2375    0.0000 C   0  0  0  0  0  0  0  0  0  0  0  0
    1.4289   -1.6500    0.0000 C   0  0  0  0  0  0  0  0  0  0  0  0
    1.4289   -2.4750    0.0000 O   0  0  0  0  0  0  0  0  0  0  0  0
    0.7145   -1.2375    0.0000 C   0  0  0  0  0  0  0  0  0  0  0  0
    0.0000   -1.6500    0.0000 O   0  0  0  0  0  0  0  0  0  0  0  0
  1  2  1  0  0  0  0
  2  3  1  0  0  0  0
  3  4  2  0  0  0  0
  3 10  1  0  0  0  0
  4  5  1  0  0  0  0
  5  6  2  0  0  0  0
  5 13  1  0  0  0  0
  6  7  1  0  0  0  0
  7  8  1  0  0  0  0
  7 10  2  0  0  0  0
  8  9  1  0  0  0  0
 10 11  1  0  0  0  0
 11 12  1  0  0  0  0
 13 14  1  0  0  0  0
 13 25  2  0  0  0  0
 14 15  1  0  0  0  0
 15 16  2  0  0  0  0
 15 22  1  0  0  0  0
 16 17  1  0  0  0  0
 17 18  1  0  0  0  0
 17 19  2  0  0  0  0
 19 20  1  0  0  0  0
 20 21  1  0  0  0  0
 20 22  2  0  0  0  0
 22 23  1  0  0  0  0
 23 24  2  0  0  0  0
 23 25  1  0  0  0  0
 25 26  1  0  0  0  0
M  END
$$$$

 OpenBabel12191814062D

 51 57  0  0  0  0  0  0  0  0999 V2000
    6.4302   -5.3625    0.0000 C   0  0  0  0  0  0  0  0  0  0  0  0
    5.7158   -4.9500    0.0000 O   0  0  0  0  0  0  0  0  0  0  0  0
    5.7158   -4.1250    0.0000 C   0  0  0  0  0  0  0  0  0  0  0  0
    6.4302   -3.7125    0.0000 C   0  0  0  0  0  0  0  0  0  0  0  0
    6.4302   -2.8875    0.0000 C   0  0  0  0  0  0  0  0  0  0  0  0
    7.1447   -2.4750    0.0000 C   0  0  0  0  0  0  0  0  0  0  0  0
    7.8592   -2.8875    0.0000 C   0  0  3  0  0  0  0  0  0  0  0  0
    7.8592   -3.7125    0.0000 N   0  0  0  0  0  0  0  0  0  0  0  0
    7.1447   -4.1250    0.0000 C   0  0  0  0  0  0  0  0  0  0  0  0
    8.5737   -4.1250    0.0000 C   0  0  0  0  0  0  0  0  0  0  0  0
    9.2881   -3.7125    0.0000 C   0  0  0  0  0  0  0  0  0  0  0  0
    9.2881   -2.8875    0.0000 C   0  0  0  0  0  0  0  0  0  0  0  0
   10.0026   -2.4750    0.0000 C   0  0  0  0  0  0  0  0  0  0  0  0
   10.0026   -1.6500    0.0000 C   0  0  0  0  0  0  0  0  0  0  0  0
   10.7171   -1.2375    0.0000 O   0  0  0  0  0  0  0  0  0  0  0  0
   11.4315   -1.6500    0.0000 C   0  0  0  0  0  0  0  0  0  0  0  0
    9.2881   -1.2375    0.0000 C   0  0  0  0  0  0  0  0  0  0  0  0
    9.2881   -0.4125    0.0000 O   0  0  0  0  0  0  0  0  0  0  0  0
   10.0026    0.0000    0.0000 C   0  0  0  0  0  0  0  0  0  0  0  0
    8.5737   -1.6500    0.0000 C   0  0  0  0  0  0  0  0  0  0  0  0
    8.5737   -2.4750    0.0000 C   0  0  0  0  0  0  0  0  0  0  0  0
    5.7158   -2.4750    0.0000 C   0  0  0  0  0  0  0  0  0  0  0  0
    5.7158   -1.6500    0.0000 O   0  0  0  0  0  0  0  0  0  0  0  0
    5.0013   -1.2375    0.0000 C   0  0  0  0  0  0  0  0  0  0  0  0
    4.2868   -1.6500    0.0000 C   0  0  0  0  0  0  0  0  0  0  0  0
    3.5724   -1.2375    0.0000 C   0  0  0  0  0  0  0  0  0  0  0  0
    2.8579   -1.6500    0.0000 C   0  0  0  0  0  0  0  0  0  0  0  0
    2.1434   -1.2375    0.0000 C   0  0  3  0  0  0  0  0  0  0  0  0
    1.4289   -1.6500    0.0000 N   0  0  0  0  0  0  0  0  0  0  0  0
    1.4289   -2.4750    0.0000 C   0  0  0  0  0  0  0  0  0  0  0  0
    0.7145   -1.2375    0.0000 C   0  0  0  0  0  0  0  0  0  0  0  0
    0.7145   -0.4125    0.0000 C   0  0  0  0  0  0  0  0  0  0  0  0
    1.4289   -0.0000    0.0000 C   0  0  0  0  0  0  0  0  0  0  0  0
    1.4289    0.8250    0.0000 C   0  0  0  0  0  0  0  0  0  0  0  0
    2.1434    1.2375    0.0000 C   0  0  0  0  0  0  0  0  0  0  0  0
    2.1434    2.0625    0.0000 O   0  0  0  0  0  0  0  0  0  0  0  0
    1.4289    2.4750    0.0000 C   0  0  0  0  0  0  0  0  0  0  0  0
    2.8579    0.8250    0.0000 C   0  0  0  0  0  0  0  0  0  0  0  0
    3.5724    1.2375    0.0000 O   0  0  0  0  0  0  0  0  0  0  0  0
    4.2868    0.8250    0.0000 C   0  0  0  0  0  0  0  0  0  0  0  0
    2.8579   -0.0000    0.0000 C   0  0  0  0  0  0  0  0  0  0  0  0
    3.5724   -0.4125    0.0000 C   0  0  0  0  0  0  0  0  0  0  0  0
    4.2868   -0.0000    0.0000 C   0  0  0  0  0  0  0  0  0  0  0  0
    5.0013   -0.4125    0.0000 C   0  0  0  0  0  0  0  0  0  0  0  0
    5.7158    0.0000    0.0000 O   0  0  0  0  0  0  0  0  0  0  0  0
    6.4302   -0.4125    0.0000 C   0  0  0  0  0  0  0  0  0  0  0  0
    2.1434   -0.4125    0.0000 C   0  0  0  0  0  0  0  0  0  0  0  0
    5.0013   -2.8875    0.0000 C   0  0  0  0  0  0  0  0  0  0  0  0
    5.0013   -3.7125    0.0000 C   0  0  0  0  0  0  0  0  0  0  0  0
    4.2868   -4.1250    0.0000 O   0  0  0  0  0  0  0  0  0  0  0  0
    3.5724   -3.7125    0.0000 C   0  0  0  0  0  0  0  0  0  0  0  0
  1  2  1  0  0  0  0
  2  3  1  0  0  0  0
  3  4  2  0  0  0  0
  3 49  1  0  0  0  0
  4  5  1  0  0  0  0
  5  6  1  0  0  0  0
  5 22  2  0  0  0  0
  6  7  1  0  0  0  0
  7  8  1  0  0  0  0
  7 21  1  0  0  0  0
  8  9  1  0  0  0  0
  8 10  1  0  0  0  0
 10 11  1  0  0  0  0
 11 12  1  0  0  0  0
 12 13  2  0  0  0  0
 12 21  1  0  0  0  0
 13 14  1  0  0  0  0
 14 15  1  0  0  0  0
 14 17  2  0  0  0  0
 15 16  1  0  0  0  0
 17 18  1  0  0  0  0
 17 20  1  0  0  0  0
 18 19  1  0  0  0  0
 20 21  2  0  0  0  0
 22 23  1  0  0  0  0
 22 48  1  0  0  0  0
 23 24  1  0  0  0  0
 24 25  2  0  0  0  0
 24 44  1  0  0  0  0
 25 26  1  0  0  0  0
 26 27  1  0  0  0  0
 26 42  2  0  0  0  0
 27 28  1  0  0  0  0
 28 29  1  0  0  0  0
 28 47  1  0  0  0  0
 29 30  1  0  0  0  0
 29 31  1  0  0  0  0
 31 32  1  0  0  0  0
 32 33  1  0  0  0  0
 33 34  2  0  0  0  0
 33 47  1  0  0  0  0
 34 35  1  0  0  0  0
 35 36  1  0  0  0  0
 35 38  2  0  0  0  0
 36 37  1  0  0  0  0
 38 39  1  0  0  0  0
 38 41  1  0  0  0  0
 39 40  1  0  0  0  0
 41 42  1  0  0  0  0
 41 47  2  0  0  0  0
 42 43  1  0  0  0  0
 43 44  2  0  0  0  0
 44 45  1  0  0  0  0
 45 46  1  0  0  0  0
 48 49  2  0  0  0  0
 49 50  1  0  0  0  0
 50 51  1  0  0  0  0
M  END
$$$$

 OpenBabel12191814062D

 57 60  0  0  0  0  0  0  0  0999 V2000
   12.8973    4.9380    0.0000 C   0  0  0  0  0  0  0  0  0  0  0  0
   12.1861    4.5200    0.0000 O   0  0  0  0  0  0  0  0  0  0  0  0
   11.4684    4.9270    0.0000 C   0  0  3  0  0  0  0  0  0  0  0  0
   10.7572    4.5090    0.0000 C   0  0  0  0  0  0  0  0  0  0  0  0
   10.0395    4.9160    0.0000 C   0  0  3  0  0  0  0  0  0  0  0  0
   10.0332    5.7410    0.0000 C   0  0  0  0  0  0  0  0  0  0  0  0
   10.7445    6.1590    0.0000 C   0  0  0  0  0  0  0  0  0  0  0  0
   11.4621    5.7520    0.0000 C   0  0  3  0  0  0  0  0  0  0  0  0
   12.1734    6.1699    0.0000 O   0  0  0  0  0  0  0  0  0  0  0  0
    9.3283    4.4980    0.0000 C   0  0  0  0  0  0  0  0  0  0  0  0
    8.6106    4.9050    0.0000 C   0  0  0  0  0  0  0  0  0  0  0  0
    8.6043    5.7300    0.0000 C   0  0  0  0  0  0  0  0  0  0  0  0
    7.8994    4.4871    0.0000 C   0  0  3  0  0  0  0  0  0  0  0  0
    7.9259    3.5847    0.0000 O   0  0  0  0  0  0  0  0  0  0  0  0
    8.4693    2.9639    0.0000 C   0  0  0  0  0  0  0  0  0  0  0  0
    9.2909    3.0386    0.0000 O   0  0  0  0  0  0  0  0  0  0  0  0
    8.0468    2.2553    0.0000 C   0  0  3  0  0  0  0  0  0  0  0  0
    8.2907    1.4671    0.0000 C   0  0  0  0  0  0  0  0  0  0  0  0
    7.7301    0.8619    0.0000 C   0  0  0  0  0  0  0  0  0  0  0  0
    6.9256    1.0447    0.0000 C   0  0  0  0  0  0  0  0  0  0  0  0
    6.6817    1.8329    0.0000 C   0  0  0  0  0  0  0  0  0  0  0  0
    7.2423    2.4381    0.0000 N   0  0  0  0  0  0  0  0  0  0  0  0
    6.4358    2.0324    0.0000 C   0  0  0  0  0  0  0  0  0  0  0  0
    6.4063    1.2079    0.0000 O   0  0  0  0  0  0  0  0  0  0  0  0
    5.7272    2.4549    0.0000 C   0  0  0  0  0  0  0  0  0  0  0  0
    5.7388    3.2798    0.0000 O   0  0  0  0  0  0  0  0  0  0  0  0
    5.0070    2.0524    0.0000 C   0  0  3  0  0  0  0  0  0  0  0  0
    5.7156    1.6299    0.0000 O   0  0  0  0  0  0  0  0  0  0  0  0
    4.2984    2.4749    0.0000 O   0  0  0  0  0  0  0  0  0  0  0  0
    3.5782    2.0725    0.0000 C   0  0  3  0  0  0  0  0  0  0  0  0
    3.5666    1.2476    0.0000 C   0  0  3  0  0  0  0  0  0  0  0  0
    4.2752    0.8251    0.0000 C   0  0  0  0  0  0  0  0  0  0  0  0
    4.9954    1.2275    0.0000 C   0  0  3  0  0  0  0  0  0  0  0  0
    5.7040    0.8050    0.0000 C   0  0  0  0  0  0  0  0  0  0  0  0
    2.8464    0.8451    0.0000 O   0  0  0  0  0  0  0  0  0  0  0  0
    2.8349    0.0202    0.0000 C   0  0  0  0  0  0  0  0  0  0  0  0
    2.8696    2.4950    0.0000 C   0  0  3  0  0  0  0  0  0  0  0  0
    2.8812    3.3199    0.0000 C   0  0  0  0  0  0  0  0  0  0  0  0
    2.1726    3.7424    0.0000 C   0  0  3  0  0  0  0  0  0  0  0  0
    1.4524    3.3400    0.0000 C   0  0  0  0  0  0  0  0  0  0  0  0
    2.1842    4.5673    0.0000 C   0  0  0  0  0  0  0  0  0  0  0  0
    2.9043    4.9697    0.0000 C   0  0  0  0  0  0  0  0  0  0  0  0
    2.9159    5.7947    0.0000 C   0  0  0  0  0  0  0  0  0  0  0  0
    3.6130    4.5472    0.0000 C   0  0  0  0  0  0  0  0  0  0  0  0
    4.3331    4.9497    0.0000 C   0  0  3  0  0  0  0  0  0  0  0  0
    4.3447    5.7746    0.0000 C   0  0  0  0  0  0  0  0  0  0  0  0
    3.6361    6.1971    0.0000 C   0  0  0  0  0  0  0  0  0  0  0  0
    3.6477    7.0220    0.0000 C   0  0  0  0  0  0  0  0  0  0  0  0
    5.0418    4.5272    0.0000 C   0  0  0  0  0  0  0  0  0  0  0  0
    5.0302    3.7023    0.0000 O   0  0  0  0  0  0  0  0  0  0  0  0
    5.7619    4.9296    0.0000 C   0  0  0  0  0  0  0  0  0  0  0  0
    6.4706    4.5071    0.0000 C   0  0  3  0  0  0  0  0  0  0  0  0
    6.4590    3.6822    0.0000 O   0  0  0  0  0  0  0  0  0  0  0  0
    7.1907    4.9096    0.0000 C   0  0  3  0  0  0  0  0  0  0  0  0
    7.2023    5.7345    0.0000 C   0  0  0  0  0  0  0  0  0  0  0  0
    2.1494    2.0925    0.0000 O   0  0  0  0  0  0  0  0  0  0  0  0
    1.4408    2.5150    0.0000 C   0  0  0  0  0  0  0  0  0  0  0  0
  1  2  1  0  0  0  0
  2  3  1  0  0  0  0
  3  4  1  0  0  0  0
  3  8  1  0  0  0  0
  4  5  1  0  0  0  0
  5  6  1  0  0  0  0
  5 10  1  0  0  0  0
  6  7  1  0  0  0  0
  7  8  1  0  0  0  0
  8  9  1  0  0  0  0
 10 11  2  0  0  0  0
 11 12  1  0  0  0  0
 11 13  1  0  0  0  0
 13 14  1  0  0  0  0
 13 54  1  0  0  0  0
 14 15  1  0  0  0  0
 15 16  2  0  0  0  0
 15 17  1  0  0  0  0
 17 18  1  0  0  0  0
 17 22  1  0  0  0  0
 18 19  1  0  0  0  0
 19 20  1  0  0  0  0
 20 21  1  0  0  0  0
 21 22  1  0  0  0  0
 22 23  1  0  0  0  0
 23 24  2  0  0  0  0
 23 25  1  0  0  0  0
 25 26  2  0  0  0  0
 25 27  1  0  0  0  0
 27 28  1  0  0  0  0
 27 29  1  0  0  0  0
 27 33  1  0  0  0  0
 29 30  1  0  0  0  0
 30 31  1  0  0  0  0
 30 37  1  0  0  0  0
 31 32  1  0  0  0  0
 31 35  1  0  0  0  0
 32 33  1  0  0  0  0
 33 34  1  0  0  0  0
 35 36  1  0  0  0  0
 37 38  1  0  0  0  0
 37 56  1  0  0  0  0
 38 39  1  0  0  0  0
 39 40  1  0  0  0  0
 39 41  1  0  0  0  0
 41 42  1  0  0  0  0
 42 43  1  0  0  0  0
 42 44  2  0  0  0  0
 44 45  1  0  0  0  0
 45 46  1  0  0  0  0
 45 49  1  0  0  0  0
 46 47  1  0  0  0  0
 47 48  2  0  0  0  0
 49 50  2  0  0  0  0
 49 51  1  0  0  0  0
 51 52  1  0  0  0  0
 52 53  1  0  0  0  0
 52 54  1  0  0  0  0
 54 55  1  0  0  0  0
 56 57  1  0  0  0  0
M  END
$$$$

 OpenBabel12191814062D

 32 33  0  0  0  0  0  0  0  0999 V2000
   -3.5724    0.4125    0.0000 C   0  0  0  0  0  0  0  0  0  0  0  0
   -2.8579    0.0000    0.0000 O   0  0  0  0  0  0  0  0  0  0  0  0
   -2.8579   -0.8250    0.0000 C   0  0  0  0  0  0  0  0  0  0  0  0
   -2.1434   -1.2375    0.0000 C   0  0  0  0  0  0  0  0  0  0  0  0
   -2.1434   -2.0625    0.0000 C   0  0  0  0  0  0  0  0  0  0  0  0
   -2.8579   -2.4750    0.0000 C   0  0  0  0  0  0  0  0  0  0  0  0
   -3.5724   -2.0625    0.0000 C   0  0  0  0  0  0  0  0  0  0  0  0
   -3.5724   -1.2375    0.0000 C   0  0  0  0  0  0  0  0  0  0  0  0
   -4.2868   -0.8250    0.0000 O   0  0  0  0  0  0  0  0  0  0  0  0
   -1.4289   -2.4750    0.0000 C   0  0  3  0  0  0  0  0  0  0  0  0
   -0.7145   -2.8875    0.0000 C   0  0  0  0  0  0  0  0  0  0  0  0
    0.0000   -2.4750    0.0000 C   0  0  0  0  0  0  0  0  0  0  0  0
    0.7145   -2.8875    0.0000 C   0  0  0  0  0  0  0  0  0  0  0  0
    1.4289   -2.4750    0.0000 N   0  0  0  0  0  0  0  0  0  0  0  0
    1.4289   -1.6500    0.0000 C   0  0  0  0  0  0  0  0  0  0  0  0
    2.1434   -2.8875    0.0000 C   0  0  0  0  0  0  0  0  0  0  0  0
    2.8579   -2.4750    0.0000 C   0  0  0  0  0  0  0  0  0  0  0  0
    3.5724   -2.8875    0.0000 C   0  0  0  0  0  0  0  0  0  0  0  0
    4.2868   -2.4750    0.0000 C   0  0  0  0  0  0  0  0  0  0  0  0
    5.0013   -2.8875    0.0000 C   0  0  0  0  0  0  0  0  0  0  0  0
    5.0013   -3.7125    0.0000 C   0  0  0  0  0  0  0  0  0  0  0  0
    5.7158   -4.1250    0.0000 O   0  0  0  0  0  0  0  0  0  0  0  0
    6.4302   -3.7125    0.0000 C   0  0  0  0  0  0  0  0  0  0  0  0
    4.2868   -4.1250    0.0000 C   0  0  0  0  0  0  0  0  0  0  0  0
    4.2868   -4.9500    0.0000 O   0  0  0  0  0  0  0  0  0  0  0  0
    3.5724   -5.3625    0.0000 C   0  0  0  0  0  0  0  0  0  0  0  0
    3.5724   -3.7125    0.0000 C   0  0  0  0  0  0  0  0  0  0  0  0
   -1.8414   -3.1895    0.0000 C   0  0  0  0  0  0  0  0  0  0  0  0
   -2.2539   -3.9039    0.0000 N   0  0  0  0  0  0  0  0  0  0  0  0
   -1.0164   -1.7605    0.0000 C   0  0  0  0  0  0  0  0  0  0  0  0
   -0.1914   -1.7605    0.0000 C   0  0  0  0  0  0  0  0  0  0  0  0
   -1.4289   -1.0461    0.0000 C   0  0  0  0  0  0  0  0  0  0  0  0
  1  2  1  0  0  0  0
  2  3  1  0  0  0  0
  3  4  2  0  0  0  0
  3  8  1  0  0  0  0
  4  5  1  0  0  0  0
  5  6  2  0  0  0  0
  5 10  1  0  0  0  0
  6  7  1  0  0  0  0
  7  8  2  0  0  0  0
  8  9  1  0  0  0  0
 10 11  1  0  0  0  0
 10 28  1  0  0  0  0
 10 30  1  0  0  0  0
 11 12  1  0  0  0  0
 12 13  1  0  0  0  0
 13 14  1  0  0  0  0
 14 15  1  0  0  0  0
 14 16  1  0  0  0  0
 16 17  1  0  0  0  0
 17 18  1  0  0  0  0
 18 19  2  0  0  0  0
 18 27  1  0  0  0  0
 19 20  1  0  0  0  0
 20 21  2  0  0  0  0
 21 22  1  0  0  0  0
 21 24  1  0  0  0  0
 22 23  1  0  0  0  0
 24 25  1  0  0  0  0
 24 27  2  0  0  0  0
 25 26  1  0  0  0  0
 28 29  3  0  0  0  0
 30 31  1  0  0  0  0
 30 32  1  0  0  0  0
M  END
$$$$

 OpenBabel12191814062D

 35 39  0  0  0  0  0  0  0  0999 V2000
   -0.0000    5.7750    0.0000 C   0  0  0  0  0  0  0  0  0  0  0  0
   -0.0000    4.9500    0.0000 O   0  0  0  0  0  0  0  0  0  0  0  0
   -0.7145    4.5375    0.0000 C   0  0  0  0  0  0  0  0  0  0  0  0
   -0.7145    3.7125    0.0000 C   0  0  0  0  0  0  0  0  0  0  0  0
   -1.4289    3.3000    0.0000 C   0  0  0  0  0  0  0  0  0  0  0  0
   -2.1434    3.7125    0.0000 C   0  0  0  0  0  0  0  0  0  0  0  0
   -2.1434    4.5375    0.0000 C   0  0  0  0  0  0  0  0  0  0  0  0
   -1.4289    4.9500    0.0000 C   0  0  0  0  0  0  0  0  0  0  0  0
   -1.4289    5.7750    0.0000 O   0  0  0  0  0  0  0  0  0  0  0  0
   -1.4289    2.4750    0.0000 C   0  0  3  0  0  0  0  0  0  0  0  0
   -0.7145    2.0625    0.0000 O   0  0  0  0  0  0  0  0  0  0  0  0
   -0.7145    1.2375    0.0000 C   0  0  0  0  0  0  0  0  0  0  0  0
    0.0000    0.8250    0.0000 C   0  0  0  0  0  0  0  0  0  0  0  0
    0.0000    0.0000    0.0000 C   0  0  0  0  0  0  0  0  0  0  0  0
   -0.7145   -0.4125    0.0000 C   0  0  0  0  0  0  0  0  0  0  0  0
   -1.4289   -0.0000    0.0000 C   0  0  0  0  0  0  0  0  0  0  0  0
   -1.4289    0.8250    0.0000 C   0  0  0  0  0  0  0  0  0  0  0  0
   -2.1434    1.2375    0.0000 O   0  0  0  0  0  0  0  0  0  0  0  0
   -2.1434    2.0625    0.0000 C   0  0  3  0  0  0  0  0  0  0  0  0
   -2.8579    2.4750    0.0000 C   0  0  0  0  0  0  0  0  0  0  0  0
   -2.8579    3.3000    0.0000 O   0  0  0  0  0  0  0  0  0  0  0  0
    0.7145   -0.4125    0.0000 C   0  0  3  0  0  0  0  0  0  0  0  0
    1.4289    0.0000    0.0000 O   0  0  0  0  0  0  0  0  0  0  0  0
    2.1434   -0.4125    0.0000 C   0  0  0  0  0  0  0  0  0  0  0  0
    2.8579    0.0000    0.0000 C   0  0  0  0  0  0  0  0  0  0  0  0
    3.5724   -0.4125    0.0000 C   0  0  0  0  0  0  0  0  0  0  0  0
    4.2868   -0.0000    0.0000 O   0  0  0  0  0  0  0  0  0  0  0  0
    3.5724   -1.2375    0.0000 C   0  0  0  0  0  0  0  0  0  0  0  0
    2.8579   -1.6500    0.0000 C   0  0  0  0  0  0  0  0  0  0  0  0
    2.8579   -2.4750    0.0000 O   0  0  0  0  0  0  0  0  0  0  0  0
    2.1434   -1.2375    0.0000 C   0  0  0  0  0  0  0  0  0  0  0  0
    1.4289   -1.6500    0.0000 C   0  0  0  0  0  0  0  0  0  0  0  0
    1.4289   -2.4750    0.0000 O   0  0  0  0  0  0  0  0  0  0  0  0
    0.7145   -1.2375    0.0000 C   0  0  3  0  0  0  0  0  0  0  0  0
    0.0000   -1.6500    0.0000 O   0  0  0  0  0  0  0  0  0  0  0  0
  1  2  1  0  0  0  0
  2  3  1  0  0  0  0
  3  4  2  0  0  0  0
  3  8  1  0  0  0  0
  4  5  1  0  0  0  0
  5  6  2  0  0  0  0
  5 10  1  0  0  0  0
  6  7  1  0  0  0  0
  7  8  2  0  0  0  0
  8  9  1  0  0  0  0
 10 11  1  0  0  0  0
 10 19  1  0  0  0  0
 11 12  1  0  0  0  0
 12 13  2  0  0  0  0
 12 17  1  0  0  0  0
 13 14  1  0  0  0  0
 14 15  2  0  0  0  0
 14 22  1  0  0  0  0
 15 16  1  0  0  0  0
 16 17  2  0  0  0  0
 17 18  1  0  0  0  0
 18 19  1  0  0  0  0
 19 20  1  0  0  0  0
 20 21  1  0  0  0  0
 22 23  1  0  0  0  0
 22 34  1  0  0  0  0
 23 24  1  0  0  0  0
 24 25  2  0  0  0  0
 24 31  1  0  0  0  0
 25 26  1  0  0  0  0
 26 27  1  0  0  0  0
 26 28  2  0  0  0  0
 28 29  1  0  0  0  0
 29 30  1  0  0  0  0
 29 31  2  0  0  0  0
 31 32  1  0  0  0  0
 32 33  2  0  0  0  0
 32 34  1  0  0  0  0
 34 35  1  0  0  0  0
M  END
$$$$

 OpenBabel12191814062D

 35 39  0  0  0  0  0  0  0  0999 V2000
   -0.0000    5.7750    0.0000 C   0  0  0  0  0  0  0  0  0  0  0  0
   -0.0000    4.9500    0.0000 O   0  0  0  0  0  0  0  0  0  0  0  0
   -0.7145    4.5375    0.0000 C   0  0  0  0  0  0  0  0  0  0  0  0
   -0.7145    3.7125    0.0000 C   0  0  0  0  0  0  0  0  0  0  0  0
   -1.4289    3.3000    0.0000 C   0  0  0  0  0  0  0  0  0  0  0  0
   -2.1434    3.7125    0.0000 C   0  0  0  0  0  0  0  0  0  0  0  0
   -2.1434    4.5375    0.0000 C   0  0  0  0  0  0  0  0  0  0  0  0
   -1.4289    4.9500    0.0000 C   0  0  0  0  0  0  0  0  0  0  0  0
   -1.4289    5.7750    0.0000 O   0  0  0  0  0  0  0  0  0  0  0  0
   -1.4289    2.4750    0.0000 C   0  0  3  0  0  0  0  0  0  0  0  0
   -0.7145    2.0625    0.0000 O   0  0  0  0  0  0  0  0  0  0  0  0
   -0.7145    1.2375    0.0000 C   0  0  0  0  0  0  0  0  0  0  0  0
    0.0000    0.8250    0.0000 C   0  0  0  0  0  0  0  0  0  0  0  0
    0.0000    0.0000    0.0000 C   0  0  0  0  0  0  0  0  0  0  0  0
   -0.7145   -0.4125    0.0000 C   0  0  0  0  0  0  0  0  0  0  0  0
   -1.4289   -0.0000    0.0000 C   0  0  0  0  0  0  0  0  0  0  0  0
   -1.4289    0.8250    0.0000 C   0  0  0  0  0  0  0  0  0  0  0  0
   -2.1434    1.2375    0.0000 O   0  0  0  0  0  0  0  0  0  0  0  0
   -2.1434    2.0625    0.0000 C   0  0  3  0  0  0  0  0  0  0  0  0
   -2.8579    2.4750    0.0000 C   0  0  0  0  0  0  0  0  0  0  0  0
   -2.8579    3.3000    0.0000 O   0  0  0  0  0  0  0  0  0  0  0  0
    0.7145   -0.4125    0.0000 C   0  0  0  0  0  0  0  0  0  0  0  0
    1.4289    0.0000    0.0000 O   0  0  0  0  0  0  0  0  0  0  0  0
    2.1434   -0.4125    0.0000 C   0  0  0  0  0  0  0  0  0  0  0  0
    2.8579    0.0000    0.0000 C   0  0  0  0  0  0  0  0  0  0  0  0
    3.5724   -0.4125    0.0000 C   0  0  0  0  0  0  0  0  0  0  0  0
    4.2868   -0.0000    0.0000 O   0  0  0  0  0  0  0  0  0  0  0  0
    3.5724   -1.2375    0.0000 C   0  0  0  0  0  0  0  0  0  0  0  0
    2.8579   -1.6500    0.0000 C   0  0  0  0  0  0  0  0  0  0  0  0
    2.8579   -2.4750    0.0000 O   0  0  0  0  0  0  0  0  0  0  0  0
    2.1434   -1.2375    0.0000 C   0  0  0  0  0  0  0  0  0  0  0  0
    1.4289   -1.6500    0.0000 C   0  0  0  0  0  0  0  0  0  0  0  0
    1.4289   -2.4750    0.0000 O   0  0  0  0  0  0  0  0  0  0  0  0
    0.7145   -1.2375    0.0000 C   0  0  0  0  0  0  0  0  0  0  0  0
    0.0000   -1.6500    0.0000 O   0  0  0  0  0  0  0  0  0  0  0  0
  1  2  1  0  0  0  0
  2  3  1  0  0  0  0
  3  4  2  0  0  0  0
  3  8  1  0  0  0  0
  4  5  1  0  0  0  0
  5  6  2  0  0  0  0
  5 10  1  0  0  0  0
  6  7  1  0  0  0  0
  7  8  2  0  0  0  0
  8  9  1  0  0  0  0
 10 11  1  0  0  0  0
 10 19  1  0  0  0  0
 11 12  1  0  0  0  0
 12 13  2  0  0  0  0
 12 17  1  0  0  0  0
 13 14  1  0  0  0  0
 14 15  2  0  0  0  0
 14 22  1  0  0  0  0
 15 16  1  0  0  0  0
 16 17  2  0  0  0  0
 17 18  1  0  0  0  0
 18 19  1  0  0  0  0
 19 20  1  0  0  0  0
 20 21  1  0  0  0  0
 22 23  1  0  0  0  0
 22 34  2  0  0  0  0
 23 24  1  0  0  0  0
 24 25  2  0  0  0  0
 24 31  1  0  0  0  0
 25 26  1  0  0  0  0
 26 27  1  0  0  0  0
 26 28  2  0  0  0  0
 28 29  1  0  0  0  0
 29 30  1  0  0  0  0
 29 31  2  0  0  0  0
 31 32  1  0  0  0  0
 32 33  2  0  0  0  0
 32 34  1  0  0  0  0
 34 35  1  0  0  0  0
M  END
$$$$

 OpenBabel12191814062D

 42 47  0  0  0  0  0  0  0  0999 V2000
   -0.0000    5.7750    0.0000 C   0  0  0  0  0  0  0  0  0  0  0  0
   -0.0000    4.9500    0.0000 O   0  0  0  0  0  0  0  0  0  0  0  0
   -0.7145    4.5375    0.0000 C   0  0  0  0  0  0  0  0  0  0  0  0
   -0.7145    3.7125    0.0000 C   0  0  0  0  0  0  0  0  0  0  0  0
   -1.4289    3.3000    0.0000 C   0  0  0  0  0  0  0  0  0  0  0  0
   -2.1434    3.7125    0.0000 C   0  0  0  0  0  0  0  0  0  0  0  0
   -2.1434    4.5375    0.0000 C   0  0  0  0  0  0  0  0  0  0  0  0
   -1.4289    4.9500    0.0000 C   0  0  0  0  0  0  0  0  0  0  0  0
   -1.4289    5.7750    0.0000 O   0  0  0  0  0  0  0  0  0  0  0  0
   -1.4289    2.4750    0.0000 C   0  0  3  0  0  0  0  0  0  0  0  0
   -0.7145    2.0625    0.0000 O   0  0  0  0  0  0  0  0  0  0  0  0
   -0.7145    1.2375    0.0000 C   0  0  0  0  0  0  0  0  0  0  0  0
    0.0000    0.8250    0.0000 C   0  0  0  0  0  0  0  0  0  0  0  0
    0.0000    0.0000    0.0000 C   0  0  0  0  0  0  0  0  0  0  0  0
   -0.7145   -0.4125    0.0000 C   0  0  0  0  0  0  0  0  0  0  0  0
   -1.4289   -0.0000    0.0000 C   0  0  0  0  0  0  0  0  0  0  0  0
   -1.4289    0.8250    0.0000 C   0  0  0  0  0  0  0  0  0  0  0  0
   -2.1434    1.2375    0.0000 O   0  0  0  0  0  0  0  0  0  0  0  0
   -2.1434    2.0625    0.0000 C   0  0  3  0  0  0  0  0  0  0  0  0
   -2.8579    2.4750    0.0000 C   0  0  0  0  0  0  0  0  0  0  0  0
   -2.8579    3.3000    0.0000 O   0  0  0  0  0  0  0  0  0  0  0  0
    0.7145   -0.4125    0.0000 C   0  0  3  0  0  0  0  0  0  0  0  0
    1.4289    0.0000    0.0000 O   0  0  0  0  0  0  0  0  0  0  0  0
    2.1434   -0.4125    0.0000 C   0  0  0  0  0  0  0  0  0  0  0  0
    2.8579    0.0000    0.0000 C   0  0  0  0  0  0  0  0  0  0  0  0
    3.5724   -0.4125    0.0000 C   0  0  0  0  0  0  0  0  0  0  0  0
    4.2868   -0.0000    0.0000 O   0  0  0  0  0  0  0  0  0  0  0  0
    4.2868    0.8250    0.0000 C   0  0  0  0  0  0  0  0  0  0  0  0
    5.0013    1.2375    0.0000 C   0  0  0  0  0  0  0  0  0  0  0  0
    5.0013    2.0625    0.0000 C   0  0  0  0  0  0  0  0  0  0  0  0
    5.7158    2.4750    0.0000 C   0  0  0  0  0  0  0  0  0  0  0  0
    6.4302    2.0625    0.0000 C   0  0  0  0  0  0  0  0  0  0  0  0
    6.4302    1.2375    0.0000 C   0  0  0  0  0  0  0  0  0  0  0  0
    5.7158    0.8250    0.0000 C   0  0  0  0  0  0  0  0  0  0  0  0
    3.5724   -1.2375    0.0000 C   0  0  0  0  0  0  0  0  0  0  0  0
    2.8579   -1.6500    0.0000 C   0  0  0  0  0  0  0  0  0  0  0  0
    2.8579   -2.4750    0.0000 O   0  0  0  0  0  0  0  0  0  0  0  0
    2.1434   -1.2375    0.0000 C   0  0  0  0  0  0  0  0  0  0  0  0
    1.4289   -1.6500    0.0000 C   0  0  0  0  0  0  0  0  0  0  0  0
    1.4289   -2.4750    0.0000 O   0  0  0  0  0  0  0  0  0  0  0  0
    0.7145   -1.2375    0.0000 C   0  0  3  0  0  0  0  0  0  0  0  0
    0.0000   -1.6500    0.0000 O   0  0  0  0  0  0  0  0  0  0  0  0
  1  2  1  0  0  0  0
  2  3  1  0  0  0  0
  3  4  2  0  0  0  0
  3  8  1  0  0  0  0
  4  5  1  0  0  0  0
  5  6  2  0  0  0  0
  5 10  1  0  0  0  0
  6  7  1  0  0  0  0
  7  8  2  0  0  0  0
  8  9  1  0  0  0  0
 10 11  1  0  0  0  0
 10 19  1  0  0  0  0
 11 12  1  0  0  0  0
 12 13  2  0  0  0  0
 12 17  1  0  0  0  0
 13 14  1  0  0  0  0
 14 15  2  0  0  0  0
 14 22  1  0  0  0  0
 15 16  1  0  0  0  0
 16 17  2  0  0  0  0
 17 18  1  0  0  0  0
 18 19  1  0  0  0  0
 19 20  1  0  0  0  0
 20 21  1  0  0  0  0
 22 23  1  0  0  0  0
 22 41  1  0  0  0  0
 23 24  1  0  0  0  0
 24 25  2  0  0  0  0
 24 38  1  0  0  0  0
 25 26  1  0  0  0  0
 26 27  1  0  0  0  0
 26 35  2  0  0  0  0
 27 28  1  0  0  0  0
 28 29  1  0  0  0  0
 29 30  2  0  0  0  0
 29 34  1  0  0  0  0
 30 31  1  0  0  0  0
 31 32  2  0  0  0  0
 32 33  1  0  0  0  0
 33 34  2  0  0  0  0
 35 36  1  0  0  0  0
 36 37  1  0  0  0  0
 36 38  2  0  0  0  0
 38 39  1  0  0  0  0
 39 40  2  0  0  0  0
 39 41  1  0  0  0  0
 41 42  1  0  0  0  0
M  END
$$$$

 OpenBabel12191814062D

 42 47  0  0  0  0  0  0  0  0999 V2000
   -0.0000    5.7750    0.0000 C   0  0  0  0  0  0  0  0  0  0  0  0
   -0.0000    4.9500    0.0000 O   0  0  0  0  0  0  0  0  0  0  0  0
   -0.7145    4.5375    0.0000 C   0  0  0  0  0  0  0  0  0  0  0  0
   -0.7145    3.7125    0.0000 C   0  0  0  0  0  0  0  0  0  0  0  0
   -1.4289    3.3000    0.0000 C   0  0  0  0  0  0  0  0  0  0  0  0
   -2.1434    3.7125    0.0000 C   0  0  0  0  0  0  0  0  0  0  0  0
   -2.1434    4.5375    0.0000 C   0  0  0  0  0  0  0  0  0  0  0  0
   -1.4289    4.9500    0.0000 C   0  0  0  0  0  0  0  0  0  0  0  0
   -1.4289    5.7750    0.0000 O   0  0  0  0  0  0  0  0  0  0  0  0
   -1.4289    2.4750    0.0000 C   0  0  3  0  0  0  0  0  0  0  0  0
   -0.7145    2.0625    0.0000 O   0  0  0  0  0  0  0  0  0  0  0  0
   -0.7145    1.2375    0.0000 C   0  0  0  0  0  0  0  0  0  0  0  0
    0.0000    0.8250    0.0000 C   0  0  0  0  0  0  0  0  0  0  0  0
    0.0000    0.0000    0.0000 C   0  0  0  0  0  0  0  0  0  0  0  0
   -0.7145   -0.4125    0.0000 C   0  0  0  0  0  0  0  0  0  0  0  0
   -1.4289   -0.0000    0.0000 C   0  0  0  0  0  0  0  0  0  0  0  0
   -1.4289    0.8250    0.0000 C   0  0  0  0  0  0  0  0  0  0  0  0
   -2.1434    1.2375    0.0000 O   0  0  0  0  0  0  0  0  0  0  0  0
   -2.1434    2.0625    0.0000 C   0  0  3  0  0  0  0  0  0  0  0  0
   -2.8579    2.4750    0.0000 C   0  0  0  0  0  0  0  0  0  0  0  0
   -2.8579    3.3000    0.0000 O   0  0  0  0  0  0  0  0  0  0  0  0
    0.7145   -0.4125    0.0000 C   0  0  0  0  0  0  0  0  0  0  0  0
    1.4289    0.0000    0.0000 O   0  0  0  0  0  0  0  0  0  0  0  0
    2.1434   -0.4125    0.0000 C   0  0  0  0  0  0  0  0  0  0  0  0
    2.8579    0.0000    0.0000 C   0  0  0  0  0  0  0  0  0  0  0  0
    3.5724   -0.4125    0.0000 C   0  0  0  0  0  0  0  0  0  0  0  0
    4.2868   -0.0000    0.0000 O   0  0  0  0  0  0  0  0  0  0  0  0
    4.2868    0.8250    0.0000 C   0  0  0  0  0  0  0  0  0  0  0  0
    5.0013    1.2375    0.0000 C   0  0  0  0  0  0  0  0  0  0  0  0
    5.0013    2.0625    0.0000 C   0  0  0  0  0  0  0  0  0  0  0  0
    5.7158    2.4750    0.0000 C   0  0  0  0  0  0  0  0  0  0  0  0
    6.4302    2.0625    0.0000 C   0  0  0  0  0  0  0  0  0  0  0  0
    6.4302    1.2375    0.0000 C   0  0  0  0  0  0  0  0  0  0  0  0
    5.7158    0.8250    0.0000 C   0  0  0  0  0  0  0  0  0  0  0  0
    3.5724   -1.2375    0.0000 C   0  0  0  0  0  0  0  0  0  0  0  0
    2.8579   -1.6500    0.0000 C   0  0  0  0  0  0  0  0  0  0  0  0
    2.8579   -2.4750    0.0000 O   0  0  0  0  0  0  0  0  0  0  0  0
    2.1434   -1.2375    0.0000 C   0  0  0  0  0  0  0  0  0  0  0  0
    1.4289   -1.6500    0.0000 C   0  0  0  0  0  0  0  0  0  0  0  0
    1.4289   -2.4750    0.0000 O   0  0  0  0  0  0  0  0  0  0  0  0
    0.7145   -1.2375    0.0000 C   0  0  0  0  0  0  0  0  0  0  0  0
    0.0000   -1.6500    0.0000 O   0  0  0  0  0  0  0  0  0  0  0  0
  1  2  1  0  0  0  0
  2  3  1  0  0  0  0
  3  4  2  0  0  0  0
  3  8  1  0  0  0  0
  4  5  1  0  0  0  0
  5  6  2  0  0  0  0
  5 10  1  0  0  0  0
  6  7  1  0  0  0  0
  7  8  2  0  0  0  0
  8  9  1  0  0  0  0
 10 11  1  0  0  0  0
 10 19  1  0  0  0  0
 11 12  1  0  0  0  0
 12 13  2  0  0  0  0
 12 17  1  0  0  0  0
 13 14  1  0  0  0  0
 14 15  2  0  0  0  0
 14 22  1  0  0  0  0
 15 16  1  0  0  0  0
 16 17  2  0  0  0  0
 17 18  1  0  0  0  0
 18 19  1  0  0  0  0
 19 20  1  0  0  0  0
 20 21  1  0  0  0  0
 22 23  1  0  0  0  0
 22 41  2  0  0  0  0
 23 24  1  0  0  0  0
 24 25  2  0  0  0  0
 24 38  1  0  0  0  0
 25 26  1  0  0  0  0
 26 27  1  0  0  0  0
 26 35  2  0  0  0  0
 27 28  1  0  0  0  0
 28 29  1  0  0  0  0
 29 30  2  0  0  0  0
 29 34  1  0  0  0  0
 30 31  1  0  0  0  0
 31 32  2  0  0  0  0
 32 33  1  0  0  0  0
 33 34  2  0  0  0  0
 35 36  1  0  0  0  0
 36 37  1  0  0  0  0
 36 38  2  0  0  0  0
 38 39  1  0  0  0  0
 39 40  2  0  0  0  0
 39 41  1  0  0  0  0
 41 42  1  0  0  0  0
M  END
$$$$

 OpenBabel12191814062D

 43 47  0  0  0  0  0  0  0  0999 V2000
    3.5724   -5.3625    0.0000 C   0  0  0  0  0  0  0  0  0  0  0  0
    2.8579   -4.9500    0.0000 O   0  0  0  0  0  0  0  0  0  0  0  0
    2.1434   -5.3625    0.0000 C   0  0  0  0  0  0  0  0  0  0  0  0
    2.1434   -6.1875    0.0000 C   0  0  0  0  0  0  0  0  0  0  0  0
    1.4289   -6.6000    0.0000 C   0  0  0  0  0  0  0  0  0  0  0  0
    1.4289   -7.4250    0.0000 C   0  0  0  0  0  0  0  0  0  0  0  0
    0.7145   -7.8375    0.0000 C   0  0  0  0  0  0  0  0  0  0  0  0
    0.7145   -8.6625    0.0000 C   0  0  0  0  0  0  0  0  0  0  0  0
    0.0000   -9.0750    0.0000 N   0  0  0  0  0  0  0  0  0  0  0  0
   -0.7145   -8.6625    0.0000 C   0  0  0  0  0  0  0  0  0  0  0  0
    0.0000   -9.9000    0.0000 C   0  0  0  0  0  0  0  0  0  0  0  0
   -0.7145  -10.3125    0.0000 C   0  0  0  0  0  0  0  0  0  0  0  0
   -0.7145  -11.1375    0.0000 C   0  0  0  0  0  0  0  0  0  0  0  0
   -1.4289  -11.5500    0.0000 C   0  0  0  0  0  0  0  0  0  0  0  0
   -2.1434  -11.1375    0.0000 C   0  0  0  0  0  0  0  0  0  0  0  0
   -2.8579  -11.5500    0.0000 O   0  0  0  0  0  0  0  0  0  0  0  0
   -3.5724  -11.1375    0.0000 C   0  0  0  0  0  0  0  0  0  0  0  0
   -2.1434  -10.3125    0.0000 C   0  0  0  0  0  0  0  0  0  0  0  0
   -2.8579   -9.9000    0.0000 O   0  0  0  0  0  0  0  0  0  0  0  0
   -2.8579   -9.0750    0.0000 C   0  0  0  0  0  0  0  0  0  0  0  0
   -1.4289   -9.9000    0.0000 C   0  0  0  0  0  0  0  0  0  0  0  0
    0.7145   -6.1875    0.0000 C   0  0  0  0  0  0  0  0  0  0  0  0
    0.7145   -5.3625    0.0000 C   0  0  0  0  0  0  0  0  0  0  0  0
    1.4289   -4.9500    0.0000 C   0  0  0  0  0  0  0  0  0  0  0  0
    1.4289   -4.1250    0.0000 N   0  0  0  0  0  0  0  0  0  0  0  0
    2.1434   -3.7125    0.0000 C   0  0  0  0  0  0  0  0  0  0  0  0
    2.8579   -4.1250    0.0000 O   0  0  0  0  0  0  0  0  0  0  0  0
    2.1434   -2.8875    0.0000 C   0  0  0  0  0  0  0  0  0  0  0  0
    1.4289   -2.4750    0.0000 C   0  0  0  0  0  0  0  0  0  0  0  0
    1.4289   -1.6500    0.0000 C   0  0  0  0  0  0  0  0  0  0  0  0
    2.1434   -1.2375    0.0000 C   0  0  0  0  0  0  0  0  0  0  0  0
    2.8579   -1.6500    0.0000 C   0  0  0  0  0  0  0  0  0  0  0  0
    3.5724   -1.2375    0.0000 C   0  0  0  0  0  0  0  0  0  0  0  0
    3.5724   -0.4125    0.0000 O   0  0  0  0  0  0  0  0  0  0  0  0
    4.2868   -1.6500    0.0000 C   0  0  0  0  0  0  0  0  0  0  0  0
    5.0013   -1.2375    0.0000 C   0  0  0  0  0  0  0  0  0  0  0  0
    5.0013   -0.4125    0.0000 F   0  0  0  0  0  0  0  0  0  0  0  0
    5.7158   -1.6500    0.0000 C   0  0  0  0  0  0  0  0  0  0  0  0
    5.7158   -2.4750    0.0000 C   0  0  0  0  0  0  0  0  0  0  0  0
    5.0013   -2.8875    0.0000 C   0  0  0  0  0  0  0  0  0  0  0  0
    4.2868   -2.4750    0.0000 C   0  0  0  0  0  0  0  0  0  0  0  0
    3.5724   -2.8875    0.0000 N   0  0  0  0  0  0  0  0  0  0  0  0
    2.8579   -2.4750    0.0000 C   0  0  0  0  0  0  0  0  0  0  0  0
  1  2  1  0  0  0  0
  2  3  1  0  0  0  0
  3  4  2  0  0  0  0
  3 24  1  0  0  0  0
  4  5  1  0  0  0  0
  5  6  1  0  0  0  0
  5 22  2  0  0  0  0
  6  7  1  0  0  0  0
  7  8  1  0  0  0  0
  8  9  1  0  0  0  0
  9 10  1  0  0  0  0
  9 11  1  0  0  0  0
 11 12  1  0  0  0  0
 12 13  2  0  0  0  0
 12 21  1  0  0  0  0
 13 14  1  0  0  0  0
 14 15  2  0  0  0  0
 15 16  1  0  0  0  0
 15 18  1  0  0  0  0
 16 17  1  0  0  0  0
 18 19  1  0  0  0  0
 18 21  2  0  0  0  0
 19 20  1  0  0  0  0
 22 23  1  0  0  0  0
 23 24  2  0  0  0  0
 24 25  1  0  0  0  0
 25 26  1  0  0  0  0
 26 27  2  0  0  0  0
 26 28  1  0  0  0  0
 28 29  2  0  0  0  0
 28 43  1  0  0  0  0
 29 30  1  0  0  0  0
 30 31  2  0  0  0  0
 31 32  1  0  0  0  0
 32 33  1  0  0  0  0
 32 43  2  0  0  0  0
 33 34  2  0  0  0  0
 33 35  1  0  0  0  0
 35 36  2  0  0  0  0
 35 41  1  0  0  0  0
 36 37  1  0  0  0  0
 36 38  1  0  0  0  0
 38 39  2  0  0  0  0
 39 40  1  0  0  0  0
 40 41  2  0  0  0  0
 41 42  1  0  0  0  0
 42 43  1  0  0  0  0
M  END
$$$$

 OpenBabel12191814062D

 44 48  0  0  0  0  0  0  0  0999 V2000
   -2.8579    0.0000    0.0000 C   0  0  0  0  0  0  0  0  0  0  0  0
   -2.8579    0.8250    0.0000 O   0  0  0  0  0  0  0  0  0  0  0  0
   -2.1434    1.2375    0.0000 C   0  0  0  0  0  0  0  0  0  0  0  0
   -2.1434    2.0625    0.0000 C   0  0  0  0  0  0  0  0  0  0  0  0
   -1.4289    2.4750    0.0000 C   0  0  0  0  0  0  0  0  0  0  0  0
   -1.4289    3.3000    0.0000 C   0  0  0  0  0  0  0  0  0  0  0  0
   -2.1434    3.7125    0.0000 C   0  0  0  0  0  0  0  0  0  0  0  0
   -2.8579    3.3000    0.0000 C   0  0  0  0  0  0  0  0  0  0  0  0
   -3.5724    3.7125    0.0000 N   0  0  0  0  0  0  0  0  0  0  0  0
   -3.5724    4.5375    0.0000 C   0  0  0  0  0  0  0  0  0  0  0  0
   -4.2868    3.3000    0.0000 C   0  0  0  0  0  0  0  0  0  0  0  0
   -5.0013    3.7125    0.0000 C   0  0  0  0  0  0  0  0  0  0  0  0
   -5.7158    3.3000    0.0000 C   0  0  0  0  0  0  0  0  0  0  0  0
   -6.4302    3.7125    0.0000 C   0  0  0  0  0  0  0  0  0  0  0  0
   -6.4302    4.5375    0.0000 C   0  0  0  0  0  0  0  0  0  0  0  0
   -7.1447    4.9500    0.0000 O   0  0  0  0  0  0  0  0  0  0  0  0
   -7.1447    5.7750    0.0000 C   0  0  0  0  0  0  0  0  0  0  0  0
   -5.7158    4.9500    0.0000 C   0  0  0  0  0  0  0  0  0  0  0  0
   -5.7158    5.7750    0.0000 O   0  0  0  0  0  0  0  0  0  0  0  0
   -5.0013    6.1875    0.0000 C   0  0  0  0  0  0  0  0  0  0  0  0
   -5.0013    4.5375    0.0000 C   0  0  0  0  0  0  0  0  0  0  0  0
   -0.7145    2.0625    0.0000 C   0  0  0  0  0  0  0  0  0  0  0  0
   -0.7145    1.2375    0.0000 C   0  0  0  0  0  0  0  0  0  0  0  0
   -1.4289    0.8250    0.0000 C   0  0  0  0  0  0  0  0  0  0  0  0
   -1.4289   -0.0000    0.0000 N   0  0  0  0  0  0  0  0  0  0  0  0
   -0.7145   -0.4125    0.0000 C   0  0  0  0  0  0  0  0  0  0  0  0
    0.0000   -0.0000    0.0000 O   0  0  0  0  0  0  0  0  0  0  0  0
   -0.7145   -1.2375    0.0000 C   0  0  0  0  0  0  0  0  0  0  0  0
   -1.4289   -1.6500    0.0000 C   0  0  0  0  0  0  0  0  0  0  0  0
   -1.4289   -2.4750    0.0000 C   0  0  0  0  0  0  0  0  0  0  0  0
   -0.7145   -2.8875    0.0000 C   0  0  0  0  0  0  0  0  0  0  0  0
    0.0000   -2.4750    0.0000 C   0  0  0  0  0  0  0  0  0  0  0  0
    0.7145   -2.8875    0.0000 C   0  0  0  0  0  0  0  0  0  0  0  0
    0.7145   -3.7125    0.0000 O   0  0  0  0  0  0  0  0  0  0  0  0
    1.4289   -2.4750    0.0000 C   0  0  0  0  0  0  0  0  0  0  0  0
    1.4289   -1.6500    0.0000 C   0  0  0  0  0  0  0  0  0  0  0  0
    0.7145   -1.2375    0.0000 N   0  0  0  0  0  0  0  0  0  0  0  0
    0.0000   -1.6500    0.0000 C   0  0  0  0  0  0  0  0  0  0  0  0
    2.1434   -1.2375    0.0000 C   0  0  0  0  0  0  0  0  0  0  0  0
    2.8579   -1.6500    0.0000 C   0  0  0  0  0  0  0  0  0  0  0  0
    2.8579   -2.4750    0.0000 C   0  0  0  0  0  0  0  0  0  0  0  0
    2.1434   -2.8875    0.0000 C   0  0  0  0  0  0  0  0  0  0  0  0
    2.1434   -3.7125    0.0000 O   0  0  0  0  0  0  0  0  0  0  0  0
    2.8579   -4.1250    0.0000 C   0  0  0  0  0  0  0  0  0  0  0  0
  1  2  1  0  0  0  0
  2  3  1  0  0  0  0
  3  4  2  0  0  0  0
  3 24  1  0  0  0  0
  4  5  1  0  0  0  0
  5  6  1  0  0  0  0
  5 22  2  0  0  0  0
  6  7  1  0  0  0  0
  7  8  1  0  0  0  0
  8  9  1  0  0  0  0
  9 10  1  0  0  0  0
  9 11  1  0  0  0  0
 11 12  1  0  0  0  0
 12 13  2  0  0  0  0
 12 21  1  0  0  0  0
 13 14  1  0  0  0  0
 14 15  2  0  0  0  0
 15 16  1  0  0  0  0
 15 18  1  0  0  0  0
 16 17  1  0  0  0  0
 18 19  1  0  0  0  0
 18 21  2  0  0  0  0
 19 20  1  0  0  0  0
 22 23  1  0  0  0  0
 23 24  2  0  0  0  0
 24 25  1  0  0  0  0
 25 26  1  0  0  0  0
 26 27  2  0  0  0  0
 26 28  1  0  0  0  0
 28 29  2  0  0  0  0
 28 38  1  0  0  0  0
 29 30  1  0  0  0  0
 30 31  2  0  0  0  0
 31 32  1  0  0  0  0
 32 33  1  0  0  0  0
 32 38  2  0  0  0  0
 33 34  2  0  0  0  0
 33 35  1  0  0  0  0
 35 36  2  0  0  0  0
 35 42  1  0  0  0  0
 36 37  1  0  0  0  0
 36 39  1  0  0  0  0
 37 38  1  0  0  0  0
 39 40  2  0  0  0  0
 40 41  1  0  0  0  0
 41 42  2  0  0  0  0
 42 43  1  0  0  0  0
 43 44  1  0  0  0  0
M  END
$$$$

 OpenBabel12191814062D

 42 46  0  0  0  0  0  0  0  0999 V2000
    3.5724   -5.3625    0.0000 C   0  0  0  0  0  0  0  0  0  0  0  0
    2.8579   -4.9500    0.0000 O   0  0  0  0  0  0  0  0  0  0  0  0
    2.1434   -5.3625    0.0000 C   0  0  0  0  0  0  0  0  0  0  0  0
    2.1434   -6.1875    0.0000 C   0  0  0  0  0  0  0  0  0  0  0  0
    1.4289   -6.6000    0.0000 C   0  0  0  0  0  0  0  0  0  0  0  0
    1.4289   -7.4250    0.0000 C   0  0  0  0  0  0  0  0  0  0  0  0
    0.7145   -7.8375    0.0000 C   0  0  0  0  0  0  0  0  0  0  0  0
    0.7145   -8.6625    0.0000 N   0  0  0  0  0  0  0  0  0  0  0  0
    1.4289   -9.0750    0.0000 C   0  0  0  0  0  0  0  0  0  0  0  0
    0.0000   -9.0750    0.0000 C   0  0  0  0  0  0  0  0  0  0  0  0
    0.0000   -9.9000    0.0000 C   0  0  0  0  0  0  0  0  0  0  0  0
    0.7145  -10.3125    0.0000 C   0  0  0  0  0  0  0  0  0  0  0  0
    0.7145  -11.1375    0.0000 C   0  0  0  0  0  0  0  0  0  0  0  0
    0.0000  -11.5500    0.0000 C   0  0  0  0  0  0  0  0  0  0  0  0
    0.0000  -12.3750    0.0000 O   0  0  0  0  0  0  0  0  0  0  0  0
   -0.7145  -12.7875    0.0000 C   0  0  0  0  0  0  0  0  0  0  0  0
   -0.7145  -11.1375    0.0000 C   0  0  0  0  0  0  0  0  0  0  0  0
   -1.4289  -11.5500    0.0000 O   0  0  0  0  0  0  0  0  0  0  0  0
   -2.1434  -11.1375    0.0000 C   0  0  0  0  0  0  0  0  0  0  0  0
   -0.7145  -10.3125    0.0000 C   0  0  0  0  0  0  0  0  0  0  0  0
    0.7145   -6.1875    0.0000 C   0  0  0  0  0  0  0  0  0  0  0  0
    0.7145   -5.3625    0.0000 C   0  0  0  0  0  0  0  0  0  0  0  0
    1.4289   -4.9500    0.0000 C   0  0  0  0  0  0  0  0  0  0  0  0
    1.4289   -4.1250    0.0000 N   0  0  0  0  0  0  0  0  0  0  0  0
    2.1434   -3.7125    0.0000 C   0  0  0  0  0  0  0  0  0  0  0  0
    2.8579   -4.1250    0.0000 O   0  0  0  0  0  0  0  0  0  0  0  0
    2.1434   -2.8875    0.0000 C   0  0  0  0  0  0  0  0  0  0  0  0
    1.4289   -2.4750    0.0000 C   0  0  0  0  0  0  0  0  0  0  0  0
    1.4289   -1.6500    0.0000 C   0  0  0  0  0  0  0  0  0  0  0  0
    2.1434   -1.2375    0.0000 C   0  0  0  0  0  0  0  0  0  0  0  0
    2.8579   -1.6500    0.0000 C   0  0  0  0  0  0  0  0  0  0  0  0
    3.5724   -1.2375    0.0000 C   0  0  0  0  0  0  0  0  0  0  0  0
    3.5724   -0.4125    0.0000 O   0  0  0  0  0  0  0  0  0  0  0  0
    4.2868   -1.6500    0.0000 C   0  0  0  0  0  0  0  0  0  0  0  0
    5.0013   -1.2375    0.0000 C   0  0  0  0  0  0  0  0  0  0  0  0
    5.0013   -0.4125    0.0000 F   0  0  0  0  0  0  0  0  0  0  0  0
    5.7158   -1.6500    0.0000 C   0  0  0  0  0  0  0  0  0  0  0  0
    5.7158   -2.4750    0.0000 C   0  0  0  0  0  0  0  0  0  0  0  0
    5.0013   -2.8875    0.0000 C   0  0  0  0  0  0  0  0  0  0  0  0
    4.2868   -2.4750    0.0000 C   0  0  0  0  0  0  0  0  0  0  0  0
    3.5724   -2.8875    0.0000 N   0  0  0  0  0  0  0  0  0  0  0  0
    2.8579   -2.4750    0.0000 C   0  0  0  0  0  0  0  0  0  0  0  0
  1  2  1  0  0  0  0
  2  3  1  0  0  0  0
  3  4  2  0  0  0  0
  3 23  1  0  0  0  0
  4  5  1  0  0  0  0
  5  6  1  0  0  0  0
  5 21  2  0  0  0  0
  6  7  1  0  0  0  0
  7  8  1  0  0  0  0
  8  9  1  0  0  0  0
  8 10  1  0  0  0  0
 10 11  1  0  0  0  0
 11 12  2  0  0  0  0
 11 20  1  0  0  0  0
 12 13  1  0  0  0  0
 13 14  2  0  0  0  0
 14 15  1  0  0  0  0
 14 17  1  0  0  0  0
 15 16  1  0  0  0  0
 17 18  1  0  0  0  0
 17 20  2  0  0  0  0
 18 19  1  0  0  0  0
 21 22  1  0  0  0  0
 22 23  2  0  0  0  0
 23 24  1  0  0  0  0
 24 25  1  0  0  0  0
 25 26  2  0  0  0  0
 25 27  1  0  0  0  0
 27 28  2  0  0  0  0
 27 42  1  0  0  0  0
 28 29  1  0  0  0  0
 29 30  2  0  0  0  0
 30 31  1  0  0  0  0
 31 32  1  0  0  0  0
 31 42  2  0  0  0  0
 32 33  2  0  0  0  0
 32 34  1  0  0  0  0
 34 35  2  0  0  0  0
 34 40  1  0  0  0  0
 35 36  1  0  0  0  0
 35 37  1  0  0  0  0
 37 38  2  0  0  0  0
 38 39  1  0  0  0  0
 39 40  2  0  0  0  0
 40 41  1  0  0  0  0
 41 42  1  0  0  0  0
M  END
$$$$

 OpenBabel12191814062D

 37 38  0  0  0  0  0  0  0  0999 V2000
   -5.0013   -4.5375    0.0000 C   0  0  0  0  0  0  0  0  0  0  0  0
   -4.2868   -4.1250    0.0000 O   0  0  0  0  0  0  0  0  0  0  0  0
   -3.5724   -4.5375    0.0000 C   0  0  0  0  0  0  0  0  0  0  0  0
   -2.8579   -4.1250    0.0000 C   0  0  0  0  0  0  0  0  0  0  0  0
   -2.1434   -4.5375    0.0000 C   0  0  0  0  0  0  0  0  0  0  0  0
   -1.4289   -4.1250    0.0000 C   0  0  0  0  0  0  0  0  0  0  0  0
   -0.7145   -4.5375    0.0000 C   0  0  0  0  0  0  0  0  0  0  0  0
    0.0000   -4.1250    0.0000 N   0  0  0  0  0  0  0  0  0  0  0  0
    0.0000   -3.3000    0.0000 C   0  0  0  0  0  0  0  0  0  0  0  0
    0.7145   -4.5375    0.0000 C   0  0  0  0  0  0  0  0  0  0  0  0
    1.4289   -4.1250    0.0000 C   0  0  0  0  0  0  0  0  0  0  0  0
    2.1434   -4.5375    0.0000 C   0  0  0  0  0  0  0  0  0  0  0  0
    2.8579   -4.1250    0.0000 C   0  0  3  0  0  0  0  0  0  0  0  0
    2.4454   -3.4105    0.0000 C   0  0  0  0  0  0  0  0  0  0  0  0
    2.0329   -2.6961    0.0000 N   0  0  0  0  0  0  0  0  0  0  0  0
    3.2704   -4.8395    0.0000 C   0  0  0  0  0  0  0  0  0  0  0  0
    4.0954   -4.8395    0.0000 C   0  0  0  0  0  0  0  0  0  0  0  0
    2.8579   -5.5539    0.0000 C   0  0  0  0  0  0  0  0  0  0  0  0
    3.5724   -3.7125    0.0000 C   0  0  0  0  0  0  0  0  0  0  0  0
    3.5724   -2.8875    0.0000 C   0  0  0  0  0  0  0  0  0  0  0  0
    4.2868   -2.4750    0.0000 C   0  0  0  0  0  0  0  0  0  0  0  0
    4.2868   -1.6500    0.0000 O   0  0  0  0  0  0  0  0  0  0  0  0
    5.0013   -1.2375    0.0000 C   0  0  0  0  0  0  0  0  0  0  0  0
    5.0013   -2.8875    0.0000 C   0  0  0  0  0  0  0  0  0  0  0  0
    5.7158   -2.4750    0.0000 O   0  0  0  0  0  0  0  0  0  0  0  0
    6.4302   -2.8875    0.0000 C   0  0  0  0  0  0  0  0  0  0  0  0
    5.0013   -3.7125    0.0000 C   0  0  0  0  0  0  0  0  0  0  0  0
    5.7158   -4.1250    0.0000 O   0  0  0  0  0  0  0  0  0  0  0  0
    5.7158   -4.9500    0.0000 C   0  0  0  0  0  0  0  0  0  0  0  0
    4.2868   -4.1250    0.0000 C   0  0  0  0  0  0  0  0  0  0  0  0
   -2.1434   -5.3625    0.0000 C   0  0  0  0  0  0  0  0  0  0  0  0
   -2.8579   -5.7750    0.0000 C   0  0  0  0  0  0  0  0  0  0  0  0
   -2.8579   -6.6000    0.0000 O   0  0  0  0  0  0  0  0  0  0  0  0
   -3.5724   -7.0125    0.0000 C   0  0  0  0  0  0  0  0  0  0  0  0
   -3.5724   -5.3625    0.0000 C   0  0  0  0  0  0  0  0  0  0  0  0
   -4.2868   -5.7750    0.0000 O   0  0  0  0  0  0  0  0  0  0  0  0
   -4.2868   -6.6000    0.0000 C   0  0  0  0  0  0  0  0  0  0  0  0
  1  2  1  0  0  0  0
  2  3  1  0  0  0  0
  3  4  2  0  0  0  0
  3 35  1  0  0  0  0
  4  5  1  0  0  0  0
  5  6  1  0  0  0  0
  5 31  2  0  0  0  0
  6  7  1  0  0  0  0
  7  8  1  0  0  0  0
  8  9  1  0  0  0  0
  8 10  1  0  0  0  0
 10 11  1  0  0  0  0
 11 12  1  0  0  0  0
 12 13  1  0  0  0  0
 13 14  1  0  0  0  0
 13 16  1  0  0  0  0
 13 19  1  0  0  0  0
 14 15  3  0  0  0  0
 16 17  1  0  0  0  0
 16 18  1  0  0  0  0
 19 20  2  0  0  0  0
 19 30  1  0  0  0  0
 20 21  1  0  0  0  0
 21 22  1  0  0  0  0
 21 24  2  0  0  0  0
 22 23  1  0  0  0  0
 24 25  1  0  0  0  0
 24 27  1  0  0  0  0
 25 26  1  0  0  0  0
 27 28  1  0  0  0  0
 27 30  2  0  0  0  0
 28 29  1  0  0  0  0
 31 32  1  0  0  0  0
 32 33  1  0  0  0  0
 32 35  2  0  0  0  0
 33 34  1  0  0  0  0
 35 36  1  0  0  0  0
 36 37  1  0  0  0  0
M  END
$$$$

 OpenBabel12191814062D

 33 34  0  0  0  0  0  0  0  0999 V2000
   -0.7145   -2.0625    0.0000 C   0  0  0  0  0  0  0  0  0  0  0  0
    0.0000   -2.4750    0.0000 O   0  0  0  0  0  0  0  0  0  0  0  0
    0.0000   -3.3000    0.0000 C   0  0  0  0  0  0  0  0  0  0  0  0
    0.7145   -3.7125    0.0000 C   0  0  0  0  0  0  0  0  0  0  0  0
    0.7145   -4.5375    0.0000 C   0  0  0  0  0  0  0  0  0  0  0  0
    1.4289   -4.9500    0.0000 C   0  0  0  0  0  0  0  0  0  0  0  0
    2.1434   -4.5375    0.0000 C   0  0  0  0  0  0  0  0  0  0  0  0
    2.8579   -4.9500    0.0000 N   0  0  0  0  0  0  0  0  0  0  0  0
    2.8579   -5.7750    0.0000 C   0  0  0  0  0  0  0  0  0  0  0  0
    3.5724   -4.5375    0.0000 C   0  0  0  0  0  0  0  0  0  0  0  0
    4.2868   -4.9500    0.0000 C   0  0  0  0  0  0  0  0  0  0  0  0
    5.0013   -4.5375    0.0000 C   0  0  0  0  0  0  0  0  0  0  0  0
    5.7158   -4.9500    0.0000 C   0  0  3  0  0  0  0  0  0  0  0  0
    5.3033   -5.6645    0.0000 C   0  0  0  0  0  0  0  0  0  0  0  0
    4.8908   -6.3789    0.0000 N   0  0  0  0  0  0  0  0  0  0  0  0
    6.1283   -4.2355    0.0000 C   0  0  0  0  0  0  0  0  0  0  0  0
    6.9533   -4.2355    0.0000 C   0  0  0  0  0  0  0  0  0  0  0  0
    5.7158   -3.5211    0.0000 C   0  0  0  0  0  0  0  0  0  0  0  0
    6.4302   -5.3625    0.0000 C   0  0  0  0  0  0  0  0  0  0  0  0
    7.1447   -4.9500    0.0000 C   0  0  0  0  0  0  0  0  0  0  0  0
    7.8592   -5.3625    0.0000 C   0  0  0  0  0  0  0  0  0  0  0  0
    8.5737   -4.9500    0.0000 O   0  0  0  0  0  0  0  0  0  0  0  0
    8.5737   -4.1250    0.0000 C   0  0  0  0  0  0  0  0  0  0  0  0
    7.8592   -6.1875    0.0000 C   0  0  0  0  0  0  0  0  0  0  0  0
    7.1447   -6.6000    0.0000 C   0  0  0  0  0  0  0  0  0  0  0  0
    7.1447   -7.4250    0.0000 O   0  0  0  0  0  0  0  0  0  0  0  0
    6.4302   -7.8375    0.0000 C   0  0  0  0  0  0  0  0  0  0  0  0
    6.4302   -6.1875    0.0000 C   0  0  0  0  0  0  0  0  0  0  0  0
    0.0000   -4.9500    0.0000 C   0  0  0  0  0  0  0  0  0  0  0  0
   -0.7145   -4.5375    0.0000 C   0  0  0  0  0  0  0  0  0  0  0  0
   -1.4289   -4.9500    0.0000 O   0  0  0  0  0  0  0  0  0  0  0  0
   -2.1434   -4.5375    0.0000 C   0  0  0  0  0  0  0  0  0  0  0  0
   -0.7145   -3.7125    0.0000 C   0  0  0  0  0  0  0  0  0  0  0  0
  1  2  1  0  0  0  0
  2  3  1  0  0  0  0
  3  4  2  0  0  0  0
  3 33  1  0  0  0  0
  4  5  1  0  0  0  0
  5  6  1  0  0  0  0
  5 29  2  0  0  0  0
  6  7  1  0  0  0  0
  7  8  1  0  0  0  0
  8  9  1  0  0  0  0
  8 10  1  0  0  0  0
 10 11  1  0  0  0  0
 11 12  1  0  0  0  0
 12 13  1  0  0  0  0
 13 14  1  0  0  0  0
 13 16  1  0  0  0  0
 13 19  1  0  0  0  0
 14 15  3  0  0  0  0
 16 17  1  0  0  0  0
 16 18  1  0  0  0  0
 19 20  2  0  0  0  0
 19 28  1  0  0  0  0
 20 21  1  0  0  0  0
 21 22  1  0  0  0  0
 21 24  2  0  0  0  0
 22 23  1  0  0  0  0
 24 25  1  0  0  0  0
 25 26  1  0  0  0  0
 25 28  2  0  0  0  0
 26 27  1  0  0  0  0
 29 30  1  0  0  0  0
 30 31  1  0  0  0  0
 30 33  2  0  0  0  0
 31 32  1  0  0  0  0
M  END
$$$$

 OpenBabel12191814062D

 30 31  0  0  0  0  0  0  0  0999 V2000
   -0.7145   -2.0625    0.0000 C   0  0  0  0  0  0  0  0  0  0  0  0
    0.0000   -2.4750    0.0000 O   0  0  0  0  0  0  0  0  0  0  0  0
    0.0000   -3.3000    0.0000 C   0  0  0  0  0  0  0  0  0  0  0  0
    0.7145   -3.7125    0.0000 C   0  0  0  0  0  0  0  0  0  0  0  0
    0.7145   -4.5375    0.0000 C   0  0  0  0  0  0  0  0  0  0  0  0
    1.4289   -4.9500    0.0000 C   0  0  0  0  0  0  0  0  0  0  0  0
    2.1434   -4.5375    0.0000 C   0  0  0  0  0  0  0  0  0  0  0  0
    2.8579   -4.9500    0.0000 N   0  0  0  0  0  0  0  0  0  0  0  0
    2.8579   -5.7750    0.0000 C   0  0  0  0  0  0  0  0  0  0  0  0
    3.5724   -4.5375    0.0000 C   0  0  0  0  0  0  0  0  0  0  0  0
    4.2868   -4.9500    0.0000 C   0  0  0  0  0  0  0  0  0  0  0  0
    5.0013   -4.5375    0.0000 C   0  0  0  0  0  0  0  0  0  0  0  0
    5.7158   -4.9500    0.0000 C   0  0  3  0  0  0  0  0  0  0  0  0
    5.3033   -5.6645    0.0000 C   0  0  0  0  0  0  0  0  0  0  0  0
    4.8908   -6.3789    0.0000 N   0  0  0  0  0  0  0  0  0  0  0  0
    6.1283   -4.2355    0.0000 C   0  0  0  0  0  0  0  0  0  0  0  0
    6.9533   -4.2355    0.0000 C   0  0  0  0  0  0  0  0  0  0  0  0
    5.7158   -3.5211    0.0000 C   0  0  0  0  0  0  0  0  0  0  0  0
    6.4302   -5.3625    0.0000 C   0  0  0  0  0  0  0  0  0  0  0  0
    7.1447   -4.9500    0.0000 C   0  0  0  0  0  0  0  0  0  0  0  0
    7.8592   -5.3625    0.0000 C   0  0  0  0  0  0  0  0  0  0  0  0
    7.8592   -6.1875    0.0000 C   0  0  0  0  0  0  0  0  0  0  0  0
    8.5737   -6.6000    0.0000 Cl  0  0  0  0  0  0  0  0  0  0  0  0
    7.1447   -6.6000    0.0000 C   0  0  0  0  0  0  0  0  0  0  0  0
    7.1447   -7.4250    0.0000 Cl  0  0  0  0  0  0  0  0  0  0  0  0
    6.4302   -6.1875    0.0000 C   0  0  0  0  0  0  0  0  0  0  0  0
    0.0000   -4.9500    0.0000 C   0  0  0  0  0  0  0  0  0  0  0  0
   -0.7145   -4.5375    0.0000 C   0  0  0  0  0  0  0  0  0  0  0  0
   -0.7145   -3.7125    0.0000 C   0  0  0  0  0  0  0  0  0  0  0  0
   -1.4289   -3.3000    0.0000 C   0  0  0  0  0  0  0  0  0  0  0  0
  1  2  1  0  0  0  0
  2  3  1  0  0  0  0
  3  4  2  0  0  0  0
  3 29  1  0  0  0  0
  4  5  1  0  0  0  0
  5  6  1  0  0  0  0
  5 27  2  0  0  0  0
  6  7  1  0  0  0  0
  7  8  1  0  0  0  0
  8  9  1  0  0  0  0
  8 10  1  0  0  0  0
 10 11  1  0  0  0  0
 11 12  1  0  0  0  0
 12 13  1  0  0  0  0
 13 14  1  0  0  0  0
 13 16  1  0  0  0  0
 13 19  1  0  0  0  0
 14 15  3  0  0  0  0
 16 17  1  0  0  0  0
 16 18  1  0  0  0  0
 19 20  2  0  0  0  0
 19 26  1  0  0  0  0
 20 21  1  0  0  0  0
 21 22  2  0  0  0  0
 22 23  1  0  0  0  0
 22 24  1  0  0  0  0
 24 25  1  0  0  0  0
 24 26  2  0  0  0  0
 27 28  1  0  0  0  0
 28 29  2  0  0  0  0
 29 30  1  0  0  0  0
M  END
$$$$

 OpenBabel12191814062D

 42 46  0  0  0  0  0  0  0  0999 V2000
  -10.0026   -4.1250    0.0000 C   0  0  0  0  0  0  0  0  0  0  0  0
   -9.2881   -3.7125    0.0000 O   0  0  0  0  0  0  0  0  0  0  0  0
   -8.5737   -4.1250    0.0000 C   0  0  0  0  0  0  0  0  0  0  0  0
   -7.8592   -3.7125    0.0000 C   0  0  0  0  0  0  0  0  0  0  0  0
   -7.1447   -4.1250    0.0000 C   0  0  0  0  0  0  0  0  0  0  0  0
   -6.4302   -3.7125    0.0000 C   0  0  0  0  0  0  0  0  0  0  0  0
   -6.4302   -2.8875    0.0000 N   0  0  0  0  0  0  0  0  0  0  0  0
   -7.1447   -2.4750    0.0000 C   0  0  0  0  0  0  0  0  0  0  0  0
   -5.7158   -2.4750    0.0000 C   0  0  0  0  0  0  0  0  0  0  0  0
   -5.7158   -1.6500    0.0000 C   0  0  0  0  0  0  0  0  0  0  0  0
   -5.0013   -1.2375    0.0000 C   0  0  0  0  0  0  0  0  0  0  0  0
   -5.0013   -0.4125    0.0000 C   0  0  0  0  0  0  0  0  0  0  0  0
   -4.2868   -0.0000    0.0000 C   0  0  0  0  0  0  0  0  0  0  0  0
   -3.5724   -0.4125    0.0000 C   0  0  0  0  0  0  0  0  0  0  0  0
   -2.8579   -0.0000    0.0000 N   0  0  0  0  0  0  0  0  0  0  0  0
   -2.1434   -0.4125    0.0000 C   0  0  0  0  0  0  0  0  0  0  0  0
   -2.1434   -1.2375    0.0000 O   0  0  0  0  0  0  0  0  0  0  0  0
   -1.4289   -0.0000    0.0000 C   0  0  0  0  0  0  0  0  0  0  0  0
   -1.4289    0.8250    0.0000 C   0  0  0  0  0  0  0  0  0  0  0  0
   -0.7145    1.2375    0.0000 C   0  0  0  0  0  0  0  0  0  0  0  0
    0.0000    0.8250    0.0000 C   0  0  0  0  0  0  0  0  0  0  0  0
    0.0000   -0.0000    0.0000 C   0  0  0  0  0  0  0  0  0  0  0  0
   -0.7145   -0.4125    0.0000 C   0  0  0  0  0  0  0  0  0  0  0  0
   -0.7145   -1.2375    0.0000 N   0  0  0  0  0  0  0  0  0  0  0  0
    0.0000   -1.6500    0.0000 C   0  0  0  0  0  0  0  0  0  0  0  0
    0.0000   -2.4750    0.0000 O   0  0  0  0  0  0  0  0  0  0  0  0
    0.7145   -1.2375    0.0000 C   0  0  0  0  0  0  0  0  0  0  0  0
    0.7145   -0.4125    0.0000 C   0  0  0  0  0  0  0  0  0  0  0  0
    1.4289    0.0000    0.0000 N   0  0  0  0  0  0  0  0  0  0  0  0
    2.1434   -0.4125    0.0000 C   0  0  0  0  0  0  0  0  0  0  0  0
    2.8579    0.0000    0.0000 C   0  0  0  0  0  0  0  0  0  0  0  0
    3.5724   -0.4125    0.0000 C   0  0  0  0  0  0  0  0  0  0  0  0
    3.5724   -1.2375    0.0000 C   0  0  0  0  0  0  0  0  0  0  0  0
    2.8579   -1.6500    0.0000 C   0  0  0  0  0  0  0  0  0  0  0  0
    2.1434   -1.2375    0.0000 C   0  0  0  0  0  0  0  0  0  0  0  0
    1.4289   -1.6500    0.0000 C   0  0  0  0  0  0  0  0  0  0  0  0
   -3.5724   -1.2375    0.0000 C   0  0  0  0  0  0  0  0  0  0  0  0
   -4.2868   -1.6500    0.0000 C   0  0  0  0  0  0  0  0  0  0  0  0
   -7.1447   -4.9500    0.0000 C   0  0  0  0  0  0  0  0  0  0  0  0
   -7.8592   -5.3625    0.0000 C   0  0  0  0  0  0  0  0  0  0  0  0
   -8.5737   -4.9500    0.0000 C   0  0  0  0  0  0  0  0  0  0  0  0
   -9.2881   -5.3625    0.0000 O   0  0  0  0  0  0  0  0  0  0  0  0
  1  2  1  0  0  0  0
  2  3  1  0  0  0  0
  3  4  2  0  0  0  0
  3 41  1  0  0  0  0
  4  5  1  0  0  0  0
  5  6  1  0  0  0  0
  5 39  2  0  0  0  0
  6  7  1  0  0  0  0
  7  8  1  0  0  0  0
  7  9  1  0  0  0  0
  9 10  1  0  0  0  0
 10 11  1  0  0  0  0
 11 12  2  0  0  0  0
 11 38  1  0  0  0  0
 12 13  1  0  0  0  0
 13 14  2  0  0  0  0
 14 15  1  0  0  0  0
 14 37  1  0  0  0  0
 15 16  1  0  0  0  0
 16 17  2  0  0  0  0
 16 18  1  0  0  0  0
 18 19  2  0  0  0  0
 18 23  1  0  0  0  0
 19 20  1  0  0  0  0
 20 21  2  0  0  0  0
 21 22  1  0  0  0  0
 22 23  2  0  0  0  0
 23 24  1  0  0  0  0
 24 25  1  0  0  0  0
 25 26  2  0  0  0  0
 25 27  1  0  0  0  0
 27 28  2  0  0  0  0
 27 36  1  0  0  0  0
 28 29  1  0  0  0  0
 29 30  2  0  0  0  0
 30 31  1  0  0  0  0
 30 35  1  0  0  0  0
 31 32  2  0  0  0  0
 32 33  1  0  0  0  0
 33 34  2  0  0  0  0
 34 35  1  0  0  0  0
 35 36  2  0  0  0  0
 37 38  2  0  0  0  0
 39 40  1  0  0  0  0
 40 41  2  0  0  0  0
 41 42  1  0  0  0  0
M  END
$$$$

 OpenBabel12191814062D

 26 28  0  0  0  0  0  0  0  0999 V2000
   -2.8579   -2.4750    0.0000 C   0  0  0  0  0  0  0  0  0  0  0  0
   -2.1434   -2.8875    0.0000 O   0  0  0  0  0  0  0  0  0  0  0  0
   -2.1434   -3.7125    0.0000 C   0  0  0  0  0  0  0  0  0  0  0  0
   -1.4289   -4.1250    0.0000 C   0  0  0  0  0  0  0  0  0  0  0  0
   -1.4289   -4.9500    0.0000 C   0  0  0  0  0  0  0  0  0  0  0  0
   -0.7145   -5.3625    0.0000 C   0  0  0  0  0  0  0  0  0  0  0  0
   -0.7145   -6.1875    0.0000 O   0  0  0  0  0  0  0  0  0  0  0  0
   -0.0000   -6.6000    0.0000 C   0  0  0  0  0  0  0  0  0  0  0  0
    0.7145   -6.1875    0.0000 C   0  0  0  0  0  0  0  0  0  0  0  0
    1.4289   -6.6000    0.0000 C   0  0  0  0  0  0  0  0  0  0  0  0
    1.4289   -7.4250    0.0000 C   0  0  0  0  0  0  0  0  0  0  0  0
    0.7145   -7.8375    0.0000 C   0  0  0  0  0  0  0  0  0  0  0  0
   -0.0000   -7.4250    0.0000 C   0  0  0  0  0  0  0  0  0  0  0  0
   -0.7145   -7.8375    0.0000 C   0  0  0  0  0  0  0  0  0  0  0  0
   -0.7145   -8.6625    0.0000 C   0  0  0  0  0  0  0  0  0  0  0  0
   -0.0000   -9.0750    0.0000 C   0  0  0  0  0  0  0  0  0  0  0  0
    0.7145   -8.6625    0.0000 C   0  0  0  0  0  0  0  0  0  0  0  0
    1.4289   -9.0750    0.0000 C   0  0  0  0  0  0  0  0  0  0  0  0
    1.4289   -9.9000    0.0000 C   0  0  0  0  0  0  0  0  0  0  0  0
    0.7145  -10.3125    0.0000 C   0  0  0  0  0  0  0  0  0  0  0  0
   -0.0000   -9.9000    0.0000 C   0  0  0  0  0  0  0  0  0  0  0  0
   -2.1434   -5.3625    0.0000 C   0  0  0  0  0  0  0  0  0  0  0  0
   -2.8579   -4.9500    0.0000 C   0  0  0  0  0  0  0  0  0  0  0  0
   -3.5724   -5.3625    0.0000 O   0  0  0  0  0  0  0  0  0  0  0  0
   -4.2868   -4.9500    0.0000 C   0  0  0  0  0  0  0  0  0  0  0  0
   -2.8579   -4.1250    0.0000 C   0  0  0  0  0  0  0  0  0  0  0  0
  1  2  1  0  0  0  0
  2  3  1  0  0  0  0
  3  4  2  0  0  0  0
  3 26  1  0  0  0  0
  4  5  1  0  0  0  0
  5  6  1  0  0  0  0
  5 22  2  0  0  0  0
  6  7  1  0  0  0  0
  7  8  1  0  0  0  0
  8  9  2  0  0  0  0
  8 13  1  0  0  0  0
  9 10  1  0  0  0  0
 10 11  2  0  0  0  0
 11 12  1  0  0  0  0
 12 13  2  0  0  0  0
 13 14  1  0  0  0  0
 14 15  1  0  0  0  0
 15 16  1  0  0  0  0
 16 17  2  0  0  0  0
 16 21  1  0  0  0  0
 17 18  1  0  0  0  0
 18 19  2  0  0  0  0
 19 20  1  0  0  0  0
 20 21  2  0  0  0  0
 22 23  1  0  0  0  0
 23 24  1  0  0  0  0
 23 26  2  0  0  0  0
 24 25  1  0  0  0  0
M  END
$$$$

 OpenBabel12191814062D

 36 40  0  0  0  0  0  0  0  0999 V2000
   -4.2868   -1.6500    0.0000 C   0  0  0  0  0  0  0  0  0  0  0  0
   -3.5724   -1.2375    0.0000 O   0  0  0  0  0  0  0  0  0  0  0  0
   -2.8579   -1.6500    0.0000 C   0  0  0  0  0  0  0  0  0  0  0  0
   -2.8579   -2.4750    0.0000 C   0  0  0  0  0  0  0  0  0  0  0  0
   -2.1434   -2.8875    0.0000 C   0  0  0  0  0  0  0  0  0  0  0  0
   -2.1434   -3.7125    0.0000 O   0  0  0  0  0  0  0  0  0  0  0  0
   -1.4289   -2.4750    0.0000 C   0  0  0  0  0  0  0  0  0  0  0  0
   -1.4289   -1.6500    0.0000 C   0  0  0  0  0  0  0  0  0  0  0  0
   -2.1434   -1.2375    0.0000 C   0  0  0  0  0  0  0  0  0  0  0  0
   -0.7145   -1.2375    0.0000 O   0  0  0  0  0  0  0  0  0  0  0  0
    0.0000   -1.6500    0.0000 C   0  0  0  0  0  0  0  0  0  0  0  0
    0.0000   -2.4750    0.0000 C   0  0  0  0  0  0  0  0  0  0  0  0
    0.7145   -2.8875    0.0000 O   0  0  0  0  0  0  0  0  0  0  0  0
   -0.7145   -2.8875    0.0000 C   0  0  0  0  0  0  0  0  0  0  0  0
   -0.7145   -3.7125    0.0000 O   0  0  0  0  0  0  0  0  0  0  0  0
    0.7145   -1.2375    0.0000 C   0  0  0  0  0  0  0  0  0  0  0  0
    0.7145   -0.4125    0.0000 C   0  0  0  0  0  0  0  0  0  0  0  0
    1.4289    0.0000    0.0000 C   0  0  0  0  0  0  0  0  0  0  0  0
    2.1434   -0.4125    0.0000 C   0  0  0  0  0  0  0  0  0  0  0  0
    2.8579    0.0000    0.0000 O   0  0  0  0  0  0  0  0  0  0  0  0
    3.5724   -0.4125    0.0000 C   0  0  3  0  0  0  0  0  0  0  0  0
    4.2868   -0.0000    0.0000 C   0  0  0  0  0  0  0  0  0  0  0  0
    5.0013   -0.4125    0.0000 O   0  0  0  0  0  0  0  0  0  0  0  0
    3.5724   -1.2375    0.0000 C   0  0  3  0  0  0  0  0  0  0  0  0
    2.8579   -1.6500    0.0000 O   0  0  0  0  0  0  0  0  0  0  0  0
    2.1434   -1.2375    0.0000 C   0  0  0  0  0  0  0  0  0  0  0  0
    1.4289   -1.6500    0.0000 C   0  0  0  0  0  0  0  0  0  0  0  0
    4.2868   -1.6500    0.0000 C   0  0  0  0  0  0  0  0  0  0  0  0
    5.0013   -1.2375    0.0000 C   0  0  0  0  0  0  0  0  0  0  0  0
    5.7158   -1.6500    0.0000 C   0  0  0  0  0  0  0  0  0  0  0  0
    5.7158   -2.4750    0.0000 C   0  0  0  0  0  0  0  0  0  0  0  0
    6.4302   -2.8875    0.0000 O   0  0  0  0  0  0  0  0  0  0  0  0
    5.0013   -2.8875    0.0000 C   0  0  0  0  0  0  0  0  0  0  0  0
    5.0013   -3.7125    0.0000 O   0  0  0  0  0  0  0  0  0  0  0  0
    4.2868   -4.1250    0.0000 C   0  0  0  0  0  0  0  0  0  0  0  0
    4.2868   -2.4750    0.0000 C   0  0  0  0  0  0  0  0  0  0  0  0
  1  2  1  0  0  0  0
  2  3  1  0  0  0  0
  3  4  2  0  0  0  0
  3  9  1  0  0  0  0
  4  5  1  0  0  0  0
  5  6  1  0  0  0  0
  5  7  2  0  0  0  0
  7  8  1  0  0  0  0
  7 14  1  0  0  0  0
  8  9  2  0  0  0  0
  8 10  1  0  0  0  0
 10 11  1  0  0  0  0
 11 12  2  0  0  0  0
 11 16  1  0  0  0  0
 12 13  1  0  0  0  0
 12 14  1  0  0  0  0
 14 15  2  0  0  0  0
 16 17  2  0  0  0  0
 16 27  1  0  0  0  0
 17 18  1  0  0  0  0
 18 19  2  0  0  0  0
 19 20  1  0  0  0  0
 19 26  1  0  0  0  0
 20 21  1  0  0  0  0
 21 22  1  0  0  0  0
 21 24  1  0  0  0  0
 22 23  1  0  0  0  0
 24 25  1  0  0  0  0
 24 28  1  0  0  0  0
 25 26  1  0  0  0  0
 26 27  2  0  0  0  0
 28 29  2  0  0  0  0
 28 36  1  0  0  0  0
 29 30  1  0  0  0  0
 30 31  2  0  0  0  0
 31 32  1  0  0  0  0
 31 33  1  0  0  0  0
 33 34  1  0  0  0  0
 33 36  2  0  0  0  0
 34 35  1  0  0  0  0
M  END
$$$$

 OpenBabel12191814062D

 37 41  0  0  0  0  0  0  0  0999 V2000
   -4.2868   -1.6500    0.0000 C   0  0  0  0  0  0  0  0  0  0  0  0
   -3.5724   -1.2375    0.0000 O   0  0  0  0  0  0  0  0  0  0  0  0
   -2.8579   -1.6500    0.0000 C   0  0  0  0  0  0  0  0  0  0  0  0
   -2.8579   -2.4750    0.0000 C   0  0  0  0  0  0  0  0  0  0  0  0
   -2.1434   -2.8875    0.0000 C   0  0  0  0  0  0  0  0  0  0  0  0
   -2.1434   -3.7125    0.0000 O   0  0  0  0  0  0  0  0  0  0  0  0
   -1.4289   -2.4750    0.0000 C   0  0  0  0  0  0  0  0  0  0  0  0
   -1.4289   -1.6500    0.0000 C   0  0  0  0  0  0  0  0  0  0  0  0
   -2.1434   -1.2375    0.0000 C   0  0  0  0  0  0  0  0  0  0  0  0
   -0.7145   -1.2375    0.0000 O   0  0  0  0  0  0  0  0  0  0  0  0
    0.0000   -1.6500    0.0000 C   0  0  0  0  0  0  0  0  0  0  0  0
    0.0000   -2.4750    0.0000 C   0  0  0  0  0  0  0  0  0  0  0  0
    0.7145   -2.8875    0.0000 O   0  0  0  0  0  0  0  0  0  0  0  0
   -0.7145   -2.8875    0.0000 C   0  0  0  0  0  0  0  0  0  0  0  0
   -0.7145   -3.7125    0.0000 O   0  0  0  0  0  0  0  0  0  0  0  0
    0.7145   -1.2375    0.0000 C   0  0  0  0  0  0  0  0  0  0  0  0
    0.7145   -0.4125    0.0000 C   0  0  0  0  0  0  0  0  0  0  0  0
    1.4289    0.0000    0.0000 C   0  0  0  0  0  0  0  0  0  0  0  0
    2.1434   -0.4125    0.0000 C   0  0  0  0  0  0  0  0  0  0  0  0
    2.8579    0.0000    0.0000 O   0  0  0  0  0  0  0  0  0  0  0  0
    3.5724   -0.4125    0.0000 C   0  0  3  0  0  0  0  0  0  0  0  0
    4.2868   -0.0000    0.0000 C   0  0  0  0  0  0  0  0  0  0  0  0
    5.0013   -0.4125    0.0000 O   0  0  0  0  0  0  0  0  0  0  0  0
    3.5724   -1.2375    0.0000 C   0  0  3  0  0  0  0  0  0  0  0  0
    2.8579   -1.6500    0.0000 O   0  0  0  0  0  0  0  0  0  0  0  0
    2.1434   -1.2375    0.0000 C   0  0  0  0  0  0  0  0  0  0  0  0
    1.4289   -1.6500    0.0000 C   0  0  0  0  0  0  0  0  0  0  0  0
    4.2868   -1.6500    0.0000 C   0  0  0  0  0  0  0  0  0  0  0  0
    5.0013   -1.2375    0.0000 C   0  0  0  0  0  0  0  0  0  0  0  0
    5.7158   -1.6500    0.0000 C   0  0  0  0  0  0  0  0  0  0  0  0
    5.7158   -2.4750    0.0000 C   0  0  0  0  0  0  0  0  0  0  0  0
    6.4302   -2.8875    0.0000 O   0  0  0  0  0  0  0  0  0  0  0  0
    7.1447   -2.4750    0.0000 C   0  0  0  0  0  0  0  0  0  0  0  0
    5.0013   -2.8875    0.0000 C   0  0  0  0  0  0  0  0  0  0  0  0
    5.0013   -3.7125    0.0000 O   0  0  0  0  0  0  0  0  0  0  0  0
    4.2868   -4.1250    0.0000 C   0  0  0  0  0  0  0  0  0  0  0  0
    4.2868   -2.4750    0.0000 C   0  0  0  0  0  0  0  0  0  0  0  0
  1  2  1  0  0  0  0
  2  3  1  0  0  0  0
  3  4  2  0  0  0  0
  3  9  1  0  0  0  0
  4  5  1  0  0  0  0
  5  6  1  0  0  0  0
  5  7  2  0  0  0  0
  7  8  1  0  0  0  0
  7 14  1  0  0  0  0
  8  9  2  0  0  0  0
  8 10  1  0  0  0  0
 10 11  1  0  0  0  0
 11 12  2  0  0  0  0
 11 16  1  0  0  0  0
 12 13  1  0  0  0  0
 12 14  1  0  0  0  0
 14 15  2  0  0  0  0
 16 17  2  0  0  0  0
 16 27  1  0  0  0  0
 17 18  1  0  0  0  0
 18 19  2  0  0  0  0
 19 20  1  0  0  0  0
 19 26  1  0  0  0  0
 20 21  1  0  0  0  0
 21 22  1  0  0  0  0
 21 24  1  0  0  0  0
 22 23  1  0  0  0  0
 24 25  1  0  0  0  0
 24 28  1  0  0  0  0
 25 26  1  0  0  0  0
 26 27  2  0  0  0  0
 28 29  2  0  0  0  0
 28 37  1  0  0  0  0
 29 30  1  0  0  0  0
 30 31  2  0  0  0  0
 31 32  1  0  0  0  0
 31 34  1  0  0  0  0
 32 33  1  0  0  0  0
 34 35  1  0  0  0  0
 34 37  2  0  0  0  0
 35 36  1  0  0  0  0
M  END
$$$$

 OpenBabel12191814062D

 37 41  0  0  0  0  0  0  0  0999 V2000
   -4.2868   -1.6500    0.0000 C   0  0  0  0  0  0  0  0  0  0  0  0
   -3.5724   -1.2375    0.0000 O   0  0  0  0  0  0  0  0  0  0  0  0
   -2.8579   -1.6500    0.0000 C   0  0  0  0  0  0  0  0  0  0  0  0
   -2.8579   -2.4750    0.0000 C   0  0  0  0  0  0  0  0  0  0  0  0
   -2.1434   -2.8875    0.0000 C   0  0  0  0  0  0  0  0  0  0  0  0
   -2.1434   -3.7125    0.0000 O   0  0  0  0  0  0  0  0  0  0  0  0
   -1.4289   -2.4750    0.0000 C   0  0  0  0  0  0  0  0  0  0  0  0
   -1.4289   -1.6500    0.0000 C   0  0  0  0  0  0  0  0  0  0  0  0
   -2.1434   -1.2375    0.0000 C   0  0  0  0  0  0  0  0  0  0  0  0
   -0.7145   -1.2375    0.0000 O   0  0  0  0  0  0  0  0  0  0  0  0
    0.0000   -1.6500    0.0000 C   0  0  0  0  0  0  0  0  0  0  0  0
    0.7145   -1.2375    0.0000 C   0  0  0  0  0  0  0  0  0  0  0  0
    0.7145   -0.4125    0.0000 C   0  0  0  0  0  0  0  0  0  0  0  0
    1.4289    0.0000    0.0000 C   0  0  0  0  0  0  0  0  0  0  0  0
    2.1434   -0.4125    0.0000 C   0  0  0  0  0  0  0  0  0  0  0  0
    2.8579    0.0000    0.0000 O   0  0  0  0  0  0  0  0  0  0  0  0
    3.5724   -0.4125    0.0000 C   0  0  3  0  0  0  0  0  0  0  0  0
    4.2868   -0.0000    0.0000 C   0  0  0  0  0  0  0  0  0  0  0  0
    5.0013   -0.4125    0.0000 O   0  0  0  0  0  0  0  0  0  0  0  0
    3.5724   -1.2375    0.0000 C   0  0  3  0  0  0  0  0  0  0  0  0
    2.8579   -1.6500    0.0000 O   0  0  0  0  0  0  0  0  0  0  0  0
    2.1434   -1.2375    0.0000 C   0  0  0  0  0  0  0  0  0  0  0  0
    1.4289   -1.6500    0.0000 C   0  0  0  0  0  0  0  0  0  0  0  0
    4.2868   -1.6500    0.0000 C   0  0  0  0  0  0  0  0  0  0  0  0
    5.0013   -1.2375    0.0000 C   0  0  0  0  0  0  0  0  0  0  0  0
    5.7158   -1.6500    0.0000 C   0  0  0  0  0  0  0  0  0  0  0  0
    5.7158   -2.4750    0.0000 C   0  0  0  0  0  0  0  0  0  0  0  0
    6.4302   -2.8875    0.0000 O   0  0  0  0  0  0  0  0  0  0  0  0
    5.0013   -2.8875    0.0000 C   0  0  0  0  0  0  0  0  0  0  0  0
    5.0013   -3.7125    0.0000 O   0  0  0  0  0  0  0  0  0  0  0  0
    4.2868   -4.1250    0.0000 C   0  0  0  0  0  0  0  0  0  0  0  0
    4.2868   -2.4750    0.0000 C   0  0  0  0  0  0  0  0  0  0  0  0
    0.0000   -2.4750    0.0000 C   0  0  0  0  0  0  0  0  0  0  0  0
    0.7145   -2.8875    0.0000 O   0  0  0  0  0  0  0  0  0  0  0  0
    0.7145   -3.7125    0.0000 C   0  0  0  0  0  0  0  0  0  0  0  0
   -0.7145   -2.8875    0.0000 C   0  0  0  0  0  0  0  0  0  0  0  0
   -0.7145   -3.7125    0.0000 O   0  0  0  0  0  0  0  0  0  0  0  0
  1  2  1  0  0  0  0
  2  3  1  0  0  0  0
  3  4  2  0  0  0  0
  3  9  1  0  0  0  0
  4  5  1  0  0  0  0
  5  6  1  0  0  0  0
  5  7  2  0  0  0  0
  7  8  1  0  0  0  0
  7 36  1  0  0  0  0
  8  9  2  0  0  0  0
  8 10  1  0  0  0  0
 10 11  1  0  0  0  0
 11 12  1  0  0  0  0
 11 33  2  0  0  0  0
 12 13  2  0  0  0  0
 12 23  1  0  0  0  0
 13 14  1  0  0  0  0
 14 15  2  0  0  0  0
 15 16  1  0  0  0  0
 15 22  1  0  0  0  0
 16 17  1  0  0  0  0
 17 18  1  0  0  0  0
 17 20  1  0  0  0  0
 18 19  1  0  0  0  0
 20 21  1  0  0  0  0
 20 24  1  0  0  0  0
 21 22  1  0  0  0  0
 22 23  2  0  0  0  0
 24 25  2  0  0  0  0
 24 32  1  0  0  0  0
 25 26  1  0  0  0  0
 26 27  2  0  0  0  0
 27 28  1  0  0  0  0
 27 29  1  0  0  0  0
 29 30  1  0  0  0  0
 29 32  2  0  0  0  0
 30 31  1  0  0  0  0
 33 34  1  0  0  0  0
 33 36  1  0  0  0  0
 34 35  1  0  0  0  0
 36 37  2  0  0  0  0
M  END
$$$$

 OpenBabel12191814062D

 38 42  0  0  0  0  0  0  0  0999 V2000
   -4.2868   -1.6500    0.0000 C   0  0  0  0  0  0  0  0  0  0  0  0
   -3.5724   -1.2375    0.0000 O   0  0  0  0  0  0  0  0  0  0  0  0
   -2.8579   -1.6500    0.0000 C   0  0  0  0  0  0  0  0  0  0  0  0
   -2.8579   -2.4750    0.0000 C   0  0  0  0  0  0  0  0  0  0  0  0
   -2.1434   -2.8875    0.0000 C   0  0  0  0  0  0  0  0  0  0  0  0
   -2.1434   -3.7125    0.0000 O   0  0  0  0  0  0  0  0  0  0  0  0
   -1.4289   -2.4750    0.0000 C   0  0  0  0  0  0  0  0  0  0  0  0
   -1.4289   -1.6500    0.0000 C   0  0  0  0  0  0  0  0  0  0  0  0
   -2.1434   -1.2375    0.0000 C   0  0  0  0  0  0  0  0  0  0  0  0
   -0.7145   -1.2375    0.0000 O   0  0  0  0  0  0  0  0  0  0  0  0
    0.0000   -1.6500    0.0000 C   0  0  0  0  0  0  0  0  0  0  0  0
    0.7145   -1.2375    0.0000 C   0  0  0  0  0  0  0  0  0  0  0  0
    0.7145   -0.4125    0.0000 C   0  0  0  0  0  0  0  0  0  0  0  0
    1.4289    0.0000    0.0000 C   0  0  0  0  0  0  0  0  0  0  0  0
    2.1434   -0.4125    0.0000 C   0  0  0  0  0  0  0  0  0  0  0  0
    2.8579    0.0000    0.0000 O   0  0  0  0  0  0  0  0  0  0  0  0
    3.5724   -0.4125    0.0000 C   0  0  3  0  0  0  0  0  0  0  0  0
    4.2868   -0.0000    0.0000 C   0  0  0  0  0  0  0  0  0  0  0  0
    5.0013   -0.4125    0.0000 O   0  0  0  0  0  0  0  0  0  0  0  0
    3.5724   -1.2375    0.0000 C   0  0  3  0  0  0  0  0  0  0  0  0
    2.8579   -1.6500    0.0000 O   0  0  0  0  0  0  0  0  0  0  0  0
    2.1434   -1.2375    0.0000 C   0  0  0  0  0  0  0  0  0  0  0  0
    1.4289   -1.6500    0.0000 C   0  0  0  0  0  0  0  0  0  0  0  0
    4.2868   -1.6500    0.0000 C   0  0  0  0  0  0  0  0  0  0  0  0
    5.0013   -1.2375    0.0000 C   0  0  0  0  0  0  0  0  0  0  0  0
    5.7158   -1.6500    0.0000 C   0  0  0  0  0  0  0  0  0  0  0  0
    5.7158   -2.4750    0.0000 C   0  0  0  0  0  0  0  0  0  0  0  0
    6.4302   -2.8875    0.0000 O   0  0  0  0  0  0  0  0  0  0  0  0
    7.1447   -2.4750    0.0000 C   0  0  0  0  0  0  0  0  0  0  0  0
    5.0013   -2.8875    0.0000 C   0  0  0  0  0  0  0  0  0  0  0  0
    5.0013   -3.7125    0.0000 O   0  0  0  0  0  0  0  0  0  0  0  0
    4.2868   -4.1250    0.0000 C   0  0  0  0  0  0  0  0  0  0  0  0
    4.2868   -2.4750    0.0000 C   0  0  0  0  0  0  0  0  0  0  0  0
    0.0000   -2.4750    0.0000 C   0  0  0  0  0  0  0  0  0  0  0  0
    0.7145   -2.8875    0.0000 O   0  0  0  0  0  0  0  0  0  0  0  0
    0.7145   -3.7125    0.0000 C   0  0  0  0  0  0  0  0  0  0  0  0
   -0.7145   -2.8875    0.0000 C   0  0  0  0  0  0  0  0  0  0  0  0
   -0.7145   -3.7125    0.0000 O   0  0  0  0  0  0  0  0  0  0  0  0
  1  2  1  0  0  0  0
  2  3  1  0  0  0  0
  3  4  2  0  0  0  0
  3  9  1  0  0  0  0
  4  5  1  0  0  0  0
  5  6  1  0  0  0  0
  5  7  2  0  0  0  0
  7  8  1  0  0  0  0
  7 37  1  0  0  0  0
  8  9  2  0  0  0  0
  8 10  1  0  0  0  0
 10 11  1  0  0  0  0
 11 12  1  0  0  0  0
 11 34  2  0  0  0  0
 12 13  2  0  0  0  0
 12 23  1  0  0  0  0
 13 14  1  0  0  0  0
 14 15  2  0  0  0  0
 15 16  1  0  0  0  0
 15 22  1  0  0  0  0
 16 17  1  0  0  0  0
 17 18  1  0  0  0  0
 17 20  1  0  0  0  0
 18 19  1  0  0  0  0
 20 21  1  0  0  0  0
 20 24  1  0  0  0  0
 21 22  1  0  0  0  0
 22 23  2  0  0  0  0
 24 25  2  0  0  0  0
 24 33  1  0  0  0  0
 25 26  1  0  0  0  0
 26 27  2  0  0  0  0
 27 28  1  0  0  0  0
 27 30  1  0  0  0  0
 28 29  1  0  0  0  0
 30 31  1  0  0  0  0
 30 33  2  0  0  0  0
 31 32  1  0  0  0  0
 34 35  1  0  0  0  0
 34 37  1  0  0  0  0
 35 36  1  0  0  0  0
 37 38  2  0  0  0  0
M  END
$$$$

 OpenBabel12191814062D

 38 42  0  0  0  0  0  0  0  0999 V2000
   -4.2868   -1.6500    0.0000 C   0  0  0  0  0  0  0  0  0  0  0  0
   -3.5724   -1.2375    0.0000 O   0  0  0  0  0  0  0  0  0  0  0  0
   -2.8579   -1.6500    0.0000 C   0  0  0  0  0  0  0  0  0  0  0  0
   -2.8579   -2.4750    0.0000 C   0  0  0  0  0  0  0  0  0  0  0  0
   -2.1434   -2.8875    0.0000 C   0  0  0  0  0  0  0  0  0  0  0  0
   -2.1434   -3.7125    0.0000 O   0  0  0  0  0  0  0  0  0  0  0  0
   -1.4289   -4.1250    0.0000 C   0  0  0  0  0  0  0  0  0  0  0  0
   -1.4289   -2.4750    0.0000 C   0  0  0  0  0  0  0  0  0  0  0  0
   -1.4289   -1.6500    0.0000 C   0  0  0  0  0  0  0  0  0  0  0  0
   -2.1434   -1.2375    0.0000 C   0  0  0  0  0  0  0  0  0  0  0  0
   -0.7145   -1.2375    0.0000 O   0  0  0  0  0  0  0  0  0  0  0  0
    0.0000   -1.6500    0.0000 C   0  0  0  0  0  0  0  0  0  0  0  0
    0.0000   -2.4750    0.0000 C   0  0  0  0  0  0  0  0  0  0  0  0
    0.7145   -2.8875    0.0000 O   0  0  0  0  0  0  0  0  0  0  0  0
   -0.7145   -2.8875    0.0000 C   0  0  0  0  0  0  0  0  0  0  0  0
   -0.7145   -3.7125    0.0000 O   0  0  0  0  0  0  0  0  0  0  0  0
    0.7145   -1.2375    0.0000 C   0  0  0  0  0  0  0  0  0  0  0  0
    0.7145   -0.4125    0.0000 C   0  0  0  0  0  0  0  0  0  0  0  0
    1.4289    0.0000    0.0000 C   0  0  0  0  0  0  0  0  0  0  0  0
    2.1434   -0.4125    0.0000 C   0  0  0  0  0  0  0  0  0  0  0  0
    2.8579    0.0000    0.0000 O   0  0  0  0  0  0  0  0  0  0  0  0
    3.5724   -0.4125    0.0000 C   0  0  3  0  0  0  0  0  0  0  0  0
    4.2868   -0.0000    0.0000 C   0  0  0  0  0  0  0  0  0  0  0  0
    5.0013   -0.4125    0.0000 O   0  0  0  0  0  0  0  0  0  0  0  0
    3.5724   -1.2375    0.0000 C   0  0  3  0  0  0  0  0  0  0  0  0
    2.8579   -1.6500    0.0000 O   0  0  0  0  0  0  0  0  0  0  0  0
    2.1434   -1.2375    0.0000 C   0  0  0  0  0  0  0  0  0  0  0  0
    1.4289   -1.6500    0.0000 C   0  0  0  0  0  0  0  0  0  0  0  0
    4.2868   -1.6500    0.0000 C   0  0  0  0  0  0  0  0  0  0  0  0
    5.0013   -1.2375    0.0000 C   0  0  0  0  0  0  0  0  0  0  0  0
    5.7158   -1.6500    0.0000 C   0  0  0  0  0  0  0  0  0  0  0  0
    5.7158   -2.4750    0.0000 C   0  0  0  0  0  0  0  0  0  0  0  0
    6.4302   -2.8875    0.0000 O   0  0  0  0  0  0  0  0  0  0  0  0
    7.1447   -2.4750    0.0000 C   0  0  0  0  0  0  0  0  0  0  0  0
    5.0013   -2.8875    0.0000 C   0  0  0  0  0  0  0  0  0  0  0  0
    5.0013   -3.7125    0.0000 O   0  0  0  0  0  0  0  0  0  0  0  0
    4.2868   -4.1250    0.0000 C   0  0  0  0  0  0  0  0  0  0  0  0
    4.2868   -2.4750    0.0000 C   0  0  0  0  0  0  0  0  0  0  0  0
  1  2  1  0  0  0  0
  2  3  1  0  0  0  0
  3  4  2  0  0  0  0
  3 10  1  0  0  0  0
  4  5  1  0  0  0  0
  5  6  1  0  0  0  0
  5  8  2  0  0  0  0
  6  7  1  0  0  0  0
  8  9  1  0  0  0  0
  8 15  1  0  0  0  0
  9 10  2  0  0  0  0
  9 11  1  0  0  0  0
 11 12  1  0  0  0  0
 12 13  2  0  0  0  0
 12 17  1  0  0  0  0
 13 14  1  0  0  0  0
 13 15  1  0  0  0  0
 15 16  2  0  0  0  0
 17 18  2  0  0  0  0
 17 28  1  0  0  0  0
 18 19  1  0  0  0  0
 19 20  2  0  0  0  0
 20 21  1  0  0  0  0
 20 27  1  0  0  0  0
 21 22  1  0  0  0  0
 22 23  1  0  0  0  0
 22 25  1  0  0  0  0
 23 24  1  0  0  0  0
 25 26  1  0  0  0  0
 25 29  1  0  0  0  0
 26 27  1  0  0  0  0
 27 28  2  0  0  0  0
 29 30  2  0  0  0  0
 29 38  1  0  0  0  0
 30 31  1  0  0  0  0
 31 32  2  0  0  0  0
 32 33  1  0  0  0  0
 32 35  1  0  0  0  0
 33 34  1  0  0  0  0
 35 36  1  0  0  0  0
 35 38  2  0  0  0  0
 36 37  1  0  0  0  0
M  END
$$$$

 OpenBabel12191814062D

 27 29  0  0  0  0  0  0  0  0999 V2000
   -2.1434   -0.4125    0.0000 C   0  0  0  0  0  0  0  0  0  0  0  0
   -1.4289    0.0000    0.0000 O   0  0  0  0  0  0  0  0  0  0  0  0
   -0.7145   -0.4125    0.0000 C   0  0  0  0  0  0  0  0  0  0  0  0
   -0.7145   -1.2375    0.0000 C   0  0  0  0  0  0  0  0  0  0  0  0
    0.0000   -1.6500    0.0000 C   0  0  0  0  0  0  0  0  0  0  0  0
    0.0000   -2.4750    0.0000 O   0  0  0  0  0  0  0  0  0  0  0  0
    0.7145   -2.8875    0.0000 C   0  0  0  0  0  0  0  0  0  0  0  0
    0.7145   -1.2375    0.0000 C   0  0  0  0  0  0  0  0  0  0  0  0
    0.7145   -0.4125    0.0000 C   0  0  0  0  0  0  0  0  0  0  0  0
    0.0000   -0.0000    0.0000 C   0  0  0  0  0  0  0  0  0  0  0  0
    1.4289   -0.0000    0.0000 O   0  0  0  0  0  0  0  0  0  0  0  0
    2.1434   -0.4125    0.0000 C   0  0  0  0  0  0  0  0  0  0  0  0
    2.1434   -1.2375    0.0000 C   0  0  0  0  0  0  0  0  0  0  0  0
    1.4289   -1.6500    0.0000 C   0  0  0  0  0  0  0  0  0  0  0  0
    1.4289   -2.4750    0.0000 O   0  0  0  0  0  0  0  0  0  0  0  0
    2.8579   -0.0000    0.0000 C   0  0  0  0  0  0  0  0  0  0  0  0
    2.8579    0.8250    0.0000 C   0  0  0  0  0  0  0  0  0  0  0  0
    3.5724    1.2375    0.0000 C   0  0  0  0  0  0  0  0  0  0  0  0
    3.5724    2.0625    0.0000 O   0  0  0  0  0  0  0  0  0  0  0  0
    4.2868    2.4750    0.0000 C   0  0  0  0  0  0  0  0  0  0  0  0
    4.2868    0.8250    0.0000 C   0  0  0  0  0  0  0  0  0  0  0  0
    5.0013    1.2375    0.0000 O   0  0  0  0  0  0  0  0  0  0  0  0
    5.0013    2.0625    0.0000 C   0  0  0  0  0  0  0  0  0  0  0  0
    4.2868   -0.0000    0.0000 C   0  0  0  0  0  0  0  0  0  0  0  0
    5.0013   -0.4125    0.0000 O   0  0  0  0  0  0  0  0  0  0  0  0
    5.0013   -1.2375    0.0000 C   0  0  0  0  0  0  0  0  0  0  0  0
    3.5724   -0.4125    0.0000 C   0  0  0  0  0  0  0  0  0  0  0  0
  1  2  1  0  0  0  0
  2  3  1  0  0  0  0
  3  4  2  0  0  0  0
  3 10  1  0  0  0  0
  4  5  1  0  0  0  0
  5  6  1  0  0  0  0
  5  8  2  0  0  0  0
  6  7  1  0  0  0  0
  8  9  1  0  0  0  0
  8 14  1  0  0  0  0
  9 10  2  0  0  0  0
  9 11  1  0  0  0  0
 11 12  1  0  0  0  0
 12 13  2  0  0  0  0
 12 16  1  0  0  0  0
 13 14  1  0  0  0  0
 14 15  2  0  0  0  0
 16 17  2  0  0  0  0
 16 27  1  0  0  0  0
 17 18  1  0  0  0  0
 18 19  1  0  0  0  0
 18 21  2  0  0  0  0
 19 20  1  0  0  0  0
 21 22  1  0  0  0  0
 21 24  1  0  0  0  0
 22 23  1  0  0  0  0
 24 25  1  0  0  0  0
 24 27  2  0  0  0  0
 25 26  1  0  0  0  0
M  END
$$$$

 OpenBabel12191814062D

 43 47  0  0  0  0  0  0  0  0999 V2000
    0.7145   -3.7125    0.0000 C   0  0  0  0  0  0  0  0  0  0  0  0
    0.7145   -2.8875    0.0000 O   0  0  0  0  0  0  0  0  0  0  0  0
    1.4289   -2.4750    0.0000 C   0  0  0  0  0  0  0  0  0  0  0  0
    1.4289   -1.6500    0.0000 C   0  0  0  0  0  0  0  0  0  0  0  0
    2.1434   -1.2375    0.0000 C   0  0  0  0  0  0  0  0  0  0  0  0
    2.1434   -0.4125    0.0000 O   0  0  0  0  0  0  0  0  0  0  0  0
    2.8579    0.0000    0.0000 C   0  0  0  0  0  0  0  0  0  0  0  0
    2.8579   -1.6500    0.0000 C   0  0  0  0  0  0  0  0  0  0  0  0
    3.5724   -1.2375    0.0000 N   0  0  0  0  0  0  0  0  0  0  0  0
    4.2868   -1.6500    0.0000 C   0  0  0  0  0  0  0  0  0  0  0  0
    5.0013   -1.2375    0.0000 C   0  0  0  0  0  0  0  0  0  0  0  0
    5.7158   -1.6500    0.0000 C   0  0  0  0  0  0  0  0  0  0  0  0
    5.7158   -2.4750    0.0000 C   0  0  0  0  0  0  0  0  0  0  0  0
    5.0013   -2.8875    0.0000 C   0  0  0  0  0  0  0  0  0  0  0  0
    4.2868   -2.4750    0.0000 C   0  0  0  0  0  0  0  0  0  0  0  0
    3.5724   -2.8875    0.0000 C   0  0  0  0  0  0  0  0  0  0  0  0
    3.5724   -3.7125    0.0000 O   0  0  0  0  0  0  0  0  0  0  0  0
    2.8579   -2.4750    0.0000 C   0  0  0  0  0  0  0  0  0  0  0  0
    2.1434   -2.8875    0.0000 C   0  0  0  0  0  0  0  0  0  0  0  0
    5.0013   -0.4125    0.0000 C   0  0  0  0  0  0  0  0  0  0  0  0
    5.7158    0.0000    0.0000 O   0  0  0  0  0  0  0  0  0  0  0  0
    4.2868    0.0000    0.0000 N   0  0  0  0  0  0  0  0  0  0  0  0
    4.2868    0.8250    0.0000 C   0  0  0  0  0  0  0  0  0  0  0  0
    3.5724    1.2375    0.0000 C   0  0  0  0  0  0  0  0  0  0  0  0
    3.5724    2.0625    0.0000 C   0  0  0  0  0  0  0  0  0  0  0  0
    4.2868    2.4750    0.0000 C   0  0  0  0  0  0  0  0  0  0  0  0
    4.2868    3.3000    0.0000 C   0  0  0  0  0  0  0  0  0  0  0  0
    3.5724    3.7125    0.0000 C   0  0  0  0  0  0  0  0  0  0  0  0
    3.5724    4.5375    0.0000 N   0  0  0  0  0  0  0  0  0  0  0  0
    4.2868    4.9500    0.0000 C   0  0  0  0  0  0  0  0  0  0  0  0
    2.8579    4.9500    0.0000 C   0  0  0  0  0  0  0  0  0  0  0  0
    2.8579    5.7750    0.0000 C   0  0  0  0  0  0  0  0  0  0  0  0
    2.1434    6.1875    0.0000 C   0  0  0  0  0  0  0  0  0  0  0  0
    2.1434    7.0125    0.0000 C   0  0  0  0  0  0  0  0  0  0  0  0
    2.8579    7.4250    0.0000 C   0  0  0  0  0  0  0  0  0  0  0  0
    2.8579    8.2500    0.0000 O   0  0  0  0  0  0  0  0  0  0  0  0
    2.1434    8.6625    0.0000 C   0  0  0  0  0  0  0  0  0  0  0  0
    3.5724    7.0125    0.0000 C   0  0  0  0  0  0  0  0  0  0  0  0
    4.2868    7.4250    0.0000 O   0  0  0  0  0  0  0  0  0  0  0  0
    5.0013    7.0125    0.0000 C   0  0  0  0  0  0  0  0  0  0  0  0
    3.5724    6.1875    0.0000 C   0  0  0  0  0  0  0  0  0  0  0  0
    5.0013    2.0625    0.0000 C   0  0  0  0  0  0  0  0  0  0  0  0
    5.0013    1.2375    0.0000 C   0  0  0  0  0  0  0  0  0  0  0  0
  1  2  1  0  0  0  0
  2  3  1  0  0  0  0
  3  4  2  0  0  0  0
  3 19  1  0  0  0  0
  4  5  1  0  0  0  0
  5  6  1  0  0  0  0
  5  8  2  0  0  0  0
  6  7  1  0  0  0  0
  8  9  1  0  0  0  0
  8 18  1  0  0  0  0
  9 10  1  0  0  0  0
 10 11  2  0  0  0  0
 10 15  1  0  0  0  0
 11 12  1  0  0  0  0
 11 20  1  0  0  0  0
 12 13  2  0  0  0  0
 13 14  1  0  0  0  0
 14 15  2  0  0  0  0
 15 16  1  0  0  0  0
 16 17  2  0  0  0  0
 16 18  1  0  0  0  0
 18 19  2  0  0  0  0
 20 21  2  0  0  0  0
 20 22  1  0  0  0  0
 22 23  1  0  0  0  0
 23 24  2  0  0  0  0
 23 43  1  0  0  0  0
 24 25  1  0  0  0  0
 25 26  2  0  0  0  0
 26 27  1  0  0  0  0
 26 42  1  0  0  0  0
 27 28  1  0  0  0  0
 28 29  1  0  0  0  0
 29 30  1  0  0  0  0
 29 31  1  0  0  0  0
 31 32  1  0  0  0  0
 32 33  2  0  0  0  0
 32 41  1  0  0  0  0
 33 34  1  0  0  0  0
 34 35  2  0  0  0  0
 35 36  1  0  0  0  0
 35 38  1  0  0  0  0
 36 37  1  0  0  0  0
 38 39  1  0  0  0  0
 38 41  2  0  0  0  0
 39 40  1  0  0  0  0
 42 43  2  0  0  0  0
M  END
$$$$

 OpenBabel12191814062D

 40 43  0  0  0  0  0  0  0  0999 V2000
    0.0000   -0.0000    0.0000 C   0  0  0  0  0  0  0  0  0  0  0  0
   -0.7145   -0.4125    0.0000 O   0  0  0  0  0  0  0  0  0  0  0  0
   -0.7145   -1.2375    0.0000 C   0  0  0  0  0  0  0  0  0  0  0  0
    0.0000   -1.6500    0.0000 C   0  0  0  0  0  0  0  0  0  0  0  0
    0.0000   -2.4750    0.0000 C   0  0  0  0  0  0  0  0  0  0  0  0
    0.7145   -2.8875    0.0000 O   0  0  0  0  0  0  0  0  0  0  0  0
    0.7145   -3.7125    0.0000 C   0  0  0  0  0  0  0  0  0  0  0  0
   -0.7145   -2.8875    0.0000 C   0  0  0  0  0  0  0  0  0  0  0  0
   -1.4289   -2.4750    0.0000 C   0  0  0  0  0  0  0  0  0  0  0  0
   -1.4289   -1.6500    0.0000 C   0  0  0  0  0  0  0  0  0  0  0  0
   -2.1434   -2.8875    0.0000 C   0  0  3  0  0  0  0  0  0  0  0  0
   -2.8579   -2.4750    0.0000 C   0  0  0  0  0  0  0  0  0  0  0  0
   -3.5724   -2.8875    0.0000 N   0  0  0  0  0  0  0  0  0  0  0  0
   -4.2868   -2.4750    0.0000 C   0  0  0  0  0  0  0  0  0  0  0  0
   -5.0013   -2.8875    0.0000 C   0  0  0  0  0  0  0  0  0  0  0  0
   -5.7158   -2.4750    0.0000 C   0  0  0  0  0  0  0  0  0  0  0  0
   -5.7158   -1.6500    0.0000 N   0  0  0  0  0  0  0  0  0  0  0  0
   -5.0013   -1.2375    0.0000 C   0  0  0  0  0  0  0  0  0  0  0  0
   -4.2868   -1.6500    0.0000 C   0  0  0  0  0  0  0  0  0  0  0  0
   -6.4302   -1.2375    0.0000 C   0  0  0  0  0  0  0  0  0  0  0  0
   -7.1447   -1.6500    0.0000 N   0  0  0  0  0  0  0  0  0  0  0  0
   -7.8592   -1.2375    0.0000 C   0  0  0  0  0  0  0  0  0  0  0  0
   -8.5737   -1.6500    0.0000 N   0  0  0  0  0  0  0  0  0  0  0  0
   -8.5737   -2.4750    0.0000 C   0  0  0  0  0  0  0  0  0  0  0  0
   -9.2881   -2.8875    0.0000 C   0  0  0  0  0  0  0  0  0  0  0  0
  -10.0026   -2.4750    0.0000 C   0  0  0  0  0  0  0  0  0  0  0  0
   -7.8592   -0.4125    0.0000 N   0  0  0  0  0  0  0  0  0  0  0  0
   -7.1447    0.0000    0.0000 C   0  0  0  0  0  0  0  0  0  0  0  0
   -7.1447    0.8250    0.0000 N   0  0  0  0  0  0  0  0  0  0  0  0
   -6.4302    1.2375    0.0000 C   0  0  0  0  0  0  0  0  0  0  0  0
   -6.4302    2.0625    0.0000 C   0  0  0  0  0  0  0  0  0  0  0  0
   -5.7158    2.4750    0.0000 C   0  0  0  0  0  0  0  0  0  0  0  0
   -6.4302   -0.4125    0.0000 N   0  0  0  0  0  0  0  0  0  0  0  0
   -2.1434   -3.7125    0.0000 C   0  0  0  0  0  0  0  0  0  0  0  0
   -1.4289   -4.1250    0.0000 C   0  0  0  0  0  0  0  0  0  0  0  0
   -1.4289   -4.9500    0.0000 C   0  0  0  0  0  0  0  0  0  0  0  0
   -2.1434   -5.3625    0.0000 C   0  0  0  0  0  0  0  0  0  0  0  0
   -2.8579   -4.9500    0.0000 C   0  0  0  0  0  0  0  0  0  0  0  0
   -2.8579   -4.1250    0.0000 C   0  0  0  0  0  0  0  0  0  0  0  0
   -3.5724   -3.7125    0.0000 C   0  0  0  0  0  0  0  0  0  0  0  0
  1  2  1  0  0  0  0
  2  3  1  0  0  0  0
  3  4  2  0  0  0  0
  3 10  1  0  0  0  0
  4  5  1  0  0  0  0
  5  6  1  0  0  0  0
  5  8  2  0  0  0  0
  6  7  1  0  0  0  0
  8  9  1  0  0  0  0
  9 10  2  0  0  0  0
  9 11  1  0  0  0  0
 11 12  1  0  0  0  0
 11 34  1  0  0  0  0
 12 13  1  0  0  0  0
 13 14  1  0  0  0  0
 14 15  1  0  0  0  0
 14 19  1  0  0  0  0
 15 16  1  0  0  0  0
 16 17  1  0  0  0  0
 17 18  1  0  0  0  0
 17 20  1  0  0  0  0
 18 19  1  0  0  0  0
 20 21  2  0  0  0  0
 20 33  1  0  0  0  0
 21 22  1  0  0  0  0
 22 23  1  0  0  0  0
 22 27  2  0  0  0  0
 23 24  1  0  0  0  0
 24 25  1  0  0  0  0
 25 26  2  0  0  0  0
 27 28  1  0  0  0  0
 28 29  1  0  0  0  0
 28 33  2  0  0  0  0
 29 30  1  0  0  0  0
 30 31  1  0  0  0  0
 31 32  2  0  0  0  0
 34 35  2  0  0  0  0
 34 39  1  0  0  0  0
 35 36  1  0  0  0  0
 36 37  2  0  0  0  0
 37 38  1  0  0  0  0
 38 39  2  0  0  0  0
 39 40  1  0  0  0  0
M  END
$$$$

 OpenBabel12191814062D

 28 31  0  0  0  0  0  0  0  0999 V2000
    3.4990    1.1104    0.0000 C   0  0  0  0  0  0  0  0  0  0  0  0
    2.7845    0.6979    0.0000 O   0  0  0  0  0  0  0  0  0  0  0  0
    2.0701    1.1104    0.0000 C   0  0  0  0  0  0  0  0  0  0  0  0
    1.3556    0.6979    0.0000 C   0  0  0  0  0  0  0  0  0  0  0  0
    0.6411    1.1104    0.0000 C   0  0  0  0  0  0  0  0  0  0  0  0
   -0.1435    0.8555    0.0000 N   0  0  0  0  0  0  0  0  0  0  0  0
   -0.6284    1.5229    0.0000 C   0  0  0  0  0  0  0  0  0  0  0  0
   -1.4534    1.5229    0.0000 C   0  0  0  0  0  0  0  0  0  0  0  0
   -0.1435    2.1904    0.0000 C   0  0  0  0  0  0  0  0  0  0  0  0
   -0.3984    2.9750    0.0000 C   0  0  0  0  0  0  0  0  0  0  0  0
   -1.2054    3.1465    0.0000 C   0  0  0  0  0  0  0  0  0  0  0  0
   -1.4604    3.9312    0.0000 N   0  0  0  0  0  0  0  0  0  0  0  0
   -2.2673    4.1027    0.0000 C   0  0  0  0  0  0  0  0  0  0  0  0
   -2.5223    4.8873    0.0000 C   0  0  0  0  0  0  0  0  0  0  0  0
   -1.9702    5.5004    0.0000 N   0  0  0  0  0  0  0  0  0  0  0  0
   -1.1633    5.3289    0.0000 C   0  0  0  0  0  0  0  0  0  0  0  0
   -0.9083    4.5442    0.0000 C   0  0  0  0  0  0  0  0  0  0  0  0
   -2.2252    6.2850    0.0000 C   0  0  0  0  0  0  0  0  0  0  0  0
   -3.0321    6.4565    0.0000 C   0  0  0  0  0  0  0  0  0  0  0  0
   -3.2871    7.2412    0.0000 C   0  0  0  0  0  0  0  0  0  0  0  0
   -2.7351    7.8543    0.0000 C   0  0  0  0  0  0  0  0  0  0  0  0
   -1.9281    7.6827    0.0000 C   0  0  0  0  0  0  0  0  0  0  0  0
   -1.6731    6.8981    0.0000 C   0  0  0  0  0  0  0  0  0  0  0  0
    0.6411    1.9354    0.0000 C   0  0  0  0  0  0  0  0  0  0  0  0
    1.3556    2.3479    0.0000 C   0  0  0  0  0  0  0  0  0  0  0  0
    2.0701    1.9354    0.0000 C   0  0  0  0  0  0  0  0  0  0  0  0
    2.7845    2.3479    0.0000 O   0  0  0  0  0  0  0  0  0  0  0  0
    3.4990    1.9354    0.0000 C   0  0  0  0  0  0  0  0  0  0  0  0
  1  2  1  0  0  0  0
  2  3  1  0  0  0  0
  3  4  2  0  0  0  0
  3 26  1  0  0  0  0
  4  5  1  0  0  0  0
  5  6  1  0  0  0  0
  5 24  2  0  0  0  0
  6  7  1  0  0  0  0
  7  8  1  0  0  0  0
  7  9  2  0  0  0  0
  9 10  1  0  0  0  0
  9 24  1  0  0  0  0
 10 11  1  0  0  0  0
 11 12  1  0  0  0  0
 12 13  1  0  0  0  0
 12 17  1  0  0  0  0
 13 14  1  0  0  0  0
 14 15  1  0  0  0  0
 15 16  1  0  0  0  0
 15 18  1  0  0  0  0
 16 17  1  0  0  0  0
 18 19  2  0  0  0  0
 18 23  1  0  0  0  0
 19 20  1  0  0  0  0
 20 21  2  0  0  0  0
 21 22  1  0  0  0  0
 22 23  2  0  0  0  0
 24 25  1  0  0  0  0
 25 26  2  0  0  0  0
 26 27  1  0  0  0  0
 27 28  1  0  0  0  0
M  END
$$$$

 OpenBabel12191814062D

 30 33  0  0  0  0  0  0  0  0999 V2000
    3.4990    1.1104    0.0000 C   0  0  0  0  0  0  0  0  0  0  0  0
    2.7845    0.6979    0.0000 O   0  0  0  0  0  0  0  0  0  0  0  0
    2.0701    1.1104    0.0000 C   0  0  0  0  0  0  0  0  0  0  0  0
    1.3556    0.6979    0.0000 C   0  0  0  0  0  0  0  0  0  0  0  0
    0.6411    1.1104    0.0000 C   0  0  0  0  0  0  0  0  0  0  0  0
   -0.1435    0.8555    0.0000 N   0  0  0  0  0  0  0  0  0  0  0  0
   -0.6284    1.5229    0.0000 C   0  0  0  0  0  0  0  0  0  0  0  0
   -1.4534    1.5229    0.0000 C   0  0  0  0  0  0  0  0  0  0  0  0
   -0.1435    2.1904    0.0000 C   0  0  0  0  0  0  0  0  0  0  0  0
   -0.3984    2.9750    0.0000 C   0  0  0  0  0  0  0  0  0  0  0  0
   -1.2054    3.1465    0.0000 C   0  0  0  0  0  0  0  0  0  0  0  0
   -1.4604    3.9312    0.0000 N   0  0  0  0  0  0  0  0  0  0  0  0
   -2.2673    4.1027    0.0000 C   0  0  0  0  0  0  0  0  0  0  0  0
   -2.5223    4.8873    0.0000 C   0  0  0  0  0  0  0  0  0  0  0  0
   -1.9702    5.5004    0.0000 N   0  0  0  0  0  0  0  0  0  0  0  0
   -1.1633    5.3289    0.0000 C   0  0  0  0  0  0  0  0  0  0  0  0
   -0.9083    4.5442    0.0000 C   0  0  0  0  0  0  0  0  0  0  0  0
   -2.2252    6.2850    0.0000 C   0  0  0  0  0  0  0  0  0  0  0  0
   -3.0321    6.4565    0.0000 C   0  0  0  0  0  0  0  0  0  0  0  0
   -3.2871    7.2412    0.0000 C   0  0  0  0  0  0  0  0  0  0  0  0
   -2.7351    7.8543    0.0000 C   0  0  0  0  0  0  0  0  0  0  0  0
   -1.9281    7.6827    0.0000 C   0  0  0  0  0  0  0  0  0  0  0  0
   -1.6731    6.8981    0.0000 C   0  0  0  0  0  0  0  0  0  0  0  0
   -0.8662    6.7266    0.0000 O   0  0  0  0  0  0  0  0  0  0  0  0
   -0.6112    5.9420    0.0000 C   0  0  0  0  0  0  0  0  0  0  0  0
    0.6411    1.9354    0.0000 C   0  0  0  0  0  0  0  0  0  0  0  0
    1.3556    2.3479    0.0000 C   0  0  0  0  0  0  0  0  0  0  0  0
    2.0701    1.9354    0.0000 C   0  0  0  0  0  0  0  0  0  0  0  0
    2.7845    2.3479    0.0000 O   0  0  0  0  0  0  0  0  0  0  0  0
    3.4990    1.9354    0.0000 C   0  0  0  0  0  0  0  0  0  0  0  0
  1  2  1  0  0  0  0
  2  3  1  0  0  0  0
  3  4  2  0  0  0  0
  3 28  1  0  0  0  0
  4  5  1  0  0  0  0
  5  6  1  0  0  0  0
  5 26  2  0  0  0  0
  6  7  1  0  0  0  0
  7  8  1  0  0  0  0
  7  9  2  0  0  0  0
  9 10  1  0  0  0  0
  9 26  1  0  0  0  0
 10 11  1  0  0  0  0
 11 12  1  0  0  0  0
 12 13  1  0  0  0  0
 12 17  1  0  0  0  0
 13 14  1  0  0  0  0
 14 15  1  0  0  0  0
 15 16  1  0  0  0  0
 15 18  1  0  0  0  0
 16 17  1  0  0  0  0
 18 19  2  0  0  0  0
 18 23  1  0  0  0  0
 19 20  1  0  0  0  0
 20 21  2  0  0  0  0
 21 22  1  0  0  0  0
 22 23  2  0  0  0  0
 23 24  1  0  0  0  0
 24 25  1  0  0  0  0
 26 27  1  0  0  0  0
 27 28  2  0  0  0  0
 28 29  1  0  0  0  0
 29 30  1  0  0  0  0
M  END
$$$$

 OpenBabel12191814062D

 36 40  0  0  0  0  0  0  0  0999 V2000
   -0.9355   -0.6336    0.0000 C   0  0  0  0  0  0  0  0  0  0  0  0
   -0.1105   -0.6336    0.0000 O   0  0  0  0  0  0  0  0  0  0  0  0
    0.3020   -1.3480    0.0000 C   0  0  0  0  0  0  0  0  0  0  0  0
    1.1270   -1.3480    0.0000 C   0  0  0  0  0  0  0  0  0  0  0  0
    1.5395   -2.0625    0.0000 C   0  0  0  0  0  0  0  0  0  0  0  0
    2.3645   -2.0625    0.0000 C   0  0  3  0  0  0  0  0  0  0  0  0
    2.7770   -1.3480    0.0000 C   0  0  0  0  0  0  0  0  0  0  0  0
    3.6020   -1.3480    0.0000 N   0  0  0  0  0  0  0  0  0  0  0  0
    4.0145   -0.6336    0.0000 C   0  0  0  0  0  0  0  0  0  0  0  0
    4.0145   -2.0625    0.0000 C   0  0  0  0  0  0  0  0  0  0  0  0
    3.6020   -2.7770    0.0000 C   0  0  0  0  0  0  0  0  0  0  0  0
    2.7770   -2.7770    0.0000 C   0  0  3  0  0  0  0  0  0  0  0  0
    2.3645   -3.4914    0.0000 N   0  0  0  0  0  0  0  0  0  0  0  0
    1.5395   -3.4914    0.0000 C   0  0  0  0  0  0  0  0  0  0  0  0
    1.1270   -4.2059    0.0000 C   0  0  0  0  0  0  0  0  0  0  0  0
    1.5395   -4.9204    0.0000 C   0  0  0  0  0  0  0  0  0  0  0  0
    1.1270   -5.6349    0.0000 C   0  0  0  0  0  0  0  0  0  0  0  0
    0.3020   -5.6349    0.0000 C   0  0  0  0  0  0  0  0  0  0  0  0
   -0.1105   -6.3493    0.0000 N   0  0  0  0  0  0  0  0  0  0  0  0
   -0.9355   -6.3493    0.0000 S   0  0  0  0  0  0  0  0  0  0  0  0
   -0.9355   -5.5243    0.0000 O   0  0  0  0  0  0  0  0  0  0  0  0
   -0.9355   -7.1743    0.0000 O   0  0  0  0  0  0  0  0  0  0  0  0
   -1.7605   -6.3493    0.0000 C   0  0  0  0  0  0  0  0  0  0  0  0
   -2.1730   -7.0638    0.0000 C   0  0  0  0  0  0  0  0  0  0  0  0
   -2.9980   -7.0638    0.0000 C   0  0  0  0  0  0  0  0  0  0  0  0
   -3.4105   -6.3493    0.0000 C   0  0  0  0  0  0  0  0  0  0  0  0
   -4.2355   -6.3493    0.0000 C   0  0  0  0  0  0  0  0  0  0  0  0
   -2.9980   -5.6349    0.0000 C   0  0  0  0  0  0  0  0  0  0  0  0
   -2.1730   -5.6349    0.0000 C   0  0  0  0  0  0  0  0  0  0  0  0
   -0.1105   -4.9204    0.0000 C   0  0  0  0  0  0  0  0  0  0  0  0
    0.3020   -4.2059    0.0000 C   0  0  0  0  0  0  0  0  0  0  0  0
    1.1270   -2.7770    0.0000 C   0  0  0  0  0  0  0  0  0  0  0  0
    0.3020   -2.7770    0.0000 C   0  0  0  0  0  0  0  0  0  0  0  0
   -0.1105   -2.0625    0.0000 C   0  0  0  0  0  0  0  0  0  0  0  0
   -0.9355   -2.0625    0.0000 O   0  0  0  0  0  0  0  0  0  0  0  0
   -1.3480   -1.3480    0.0000 C   0  0  0  0  0  0  0  0  0  0  0  0
  1  2  1  0  0  0  0
  2  3  1  0  0  0  0
  3  4  2  0  0  0  0
  3 34  1  0  0  0  0
  4  5  1  0  0  0  0
  5  6  1  0  0  0  0
  5 32  2  0  0  0  0
  6  7  1  0  0  0  0
  6 12  1  0  0  0  0
  7  8  1  0  0  0  0
  8  9  1  0  0  0  0
  8 10  1  0  0  0  0
 10 11  1  0  0  0  0
 11 12  1  0  0  0  0
 12 13  1  0  0  0  0
 13 14  2  0  0  0  0
 14 15  1  0  0  0  0
 14 32  1  0  0  0  0
 15 16  2  0  0  0  0
 15 31  1  0  0  0  0
 16 17  1  0  0  0  0
 17 18  2  0  0  0  0
 18 19  1  0  0  0  0
 18 30  1  0  0  0  0
 19 20  1  0  0  0  0
 20 21  2  0  0  0  0
 20 22  2  0  0  0  0
 20 23  1  0  0  0  0
 23 24  2  0  0  0  0
 23 29  1  0  0  0  0
 24 25  1  0  0  0  0
 25 26  2  0  0  0  0
 26 27  1  0  0  0  0
 26 28  1  0  0  0  0
 28 29  2  0  0  0  0
 30 31  2  0  0  0  0
 32 33  1  0  0  0  0
 33 34  2  0  0  0  0
 34 35  1  0  0  0  0
 35 36  1  0  0  0  0
M  END
$$$$

 OpenBabel12191814062D

 26 29  0  0  0  0  0  0  0  0999 V2000
    6.4302   -1.2375    0.0000 C   0  0  0  0  0  0  0  0  0  0  0  0
    5.7158   -1.6500    0.0000 O   0  0  0  0  0  0  0  0  0  0  0  0
    5.0013   -1.2375    0.0000 C   0  0  0  0  0  0  0  0  0  0  0  0
    4.2868   -1.6500    0.0000 C   0  0  0  0  0  0  0  0  0  0  0  0
    3.5724   -1.2375    0.0000 C   0  0  0  0  0  0  0  0  0  0  0  0
    2.8579   -1.6500    0.0000 C   0  0  0  0  0  0  0  0  0  0  0  0
    2.1434   -1.2375    0.0000 C   0  0  3  0  0  0  0  0  0  0  0  0
    1.4289   -1.6500    0.0000 N   0  0  0  0  0  0  0  0  0  0  0  0
    1.4289   -2.4750    0.0000 C   0  0  0  0  0  0  0  0  0  0  0  0
    0.7145   -1.2375    0.0000 C   0  0  0  0  0  0  0  0  0  0  0  0
    0.7145   -0.4125    0.0000 C   0  0  0  0  0  0  0  0  0  0  0  0
    1.4289   -0.0000    0.0000 C   0  0  0  0  0  0  0  0  0  0  0  0
    1.4289    0.8250    0.0000 C   0  0  0  0  0  0  0  0  0  0  0  0
    2.1434    1.2375    0.0000 C   0  0  0  0  0  0  0  0  0  0  0  0
    2.1434    2.0625    0.0000 O   0  0  0  0  0  0  0  0  0  0  0  0
    1.4289    2.4750    0.0000 C   0  0  0  0  0  0  0  0  0  0  0  0
    2.8579    0.8250    0.0000 C   0  0  0  0  0  0  0  0  0  0  0  0
    3.5724    1.2375    0.0000 O   0  0  0  0  0  0  0  0  0  0  0  0
    4.2868    0.8250    0.0000 C   0  0  0  0  0  0  0  0  0  0  0  0
    2.8579   -0.0000    0.0000 C   0  0  0  0  0  0  0  0  0  0  0  0
    3.5724   -0.4125    0.0000 C   0  0  0  0  0  0  0  0  0  0  0  0
    4.2868   -0.0000    0.0000 C   0  0  0  0  0  0  0  0  0  0  0  0
    5.0013   -0.4125    0.0000 C   0  0  0  0  0  0  0  0  0  0  0  0
    5.7158    0.0000    0.0000 O   0  0  0  0  0  0  0  0  0  0  0  0
    6.4302   -0.4125    0.0000 C   0  0  0  0  0  0  0  0  0  0  0  0
    2.1434   -0.4125    0.0000 C   0  0  0  0  0  0  0  0  0  0  0  0
  1  2  1  0  0  0  0
  2  3  1  0  0  0  0
  3  4  2  0  0  0  0
  3 23  1  0  0  0  0
  4  5  1  0  0  0  0
  5  6  1  0  0  0  0
  5 21  2  0  0  0  0
  6  7  1  0  0  0  0
  7  8  1  0  0  0  0
  7 26  1  0  0  0  0
  8  9  1  0  0  0  0
  8 10  1  0  0  0  0
 10 11  1  0  0  0  0
 11 12  1  0  0  0  0
 12 13  2  0  0  0  0
 12 26  1  0  0  0  0
 13 14  1  0  0  0  0
 14 15  1  0  0  0  0
 14 17  2  0  0  0  0
 15 16  1  0  0  0  0
 17 18  1  0  0  0  0
 17 20  1  0  0  0  0
 18 19  1  0  0  0  0
 20 21  1  0  0  0  0
 20 26  2  0  0  0  0
 21 22  1  0  0  0  0
 22 23  2  0  0  0  0
 23 24  1  0  0  0  0
 24 25  1  0  0  0  0
M  END
$$$$

 OpenBabel12191814062D

 24 26  0  0  0  0  0  0  0  0999 V2000
   -0.7145   -0.4125    0.0000 C   0  0  0  0  0  0  0  0  0  0  0  0
    0.0000    0.0000    0.0000 O   0  0  0  0  0  0  0  0  0  0  0  0
    0.7145   -0.4125    0.0000 C   0  0  0  0  0  0  0  0  0  0  0  0
    1.4289    0.0000    0.0000 C   0  0  0  0  0  0  0  0  0  0  0  0
    2.1434   -0.4125    0.0000 C   0  0  0  0  0  0  0  0  0  0  0  0
    2.8579    0.0000    0.0000 C   0  0  0  0  0  0  0  0  0  0  0  0
    3.5724   -0.4125    0.0000 C   0  0  0  0  0  0  0  0  0  0  0  0
    3.5724   -1.2375    0.0000 N   0  0  0  0  0  0  0  0  0  0  0  0
    4.2868   -1.6500    0.0000 C   0  0  0  0  0  0  0  0  0  0  0  0
    2.8579   -1.6500    0.0000 C   0  0  3  0  0  0  0  0  0  0  0  0
    2.8579   -2.4750    0.0000 C   0  0  0  0  0  0  0  0  0  0  0  0
    3.5724   -2.8875    0.0000 C   0  0  0  0  0  0  0  0  0  0  0  0
    3.5724   -3.7125    0.0000 C   0  0  0  0  0  0  0  0  0  0  0  0
    4.2868   -4.1250    0.0000 C   0  0  0  0  0  0  0  0  0  0  0  0
    4.2868   -4.9500    0.0000 C   0  0  0  0  0  0  0  0  0  0  0  0
    3.5724   -5.3625    0.0000 C   0  0  0  0  0  0  0  0  0  0  0  0
    3.5724   -6.1875    0.0000 O   0  0  0  0  0  0  0  0  0  0  0  0
    2.8579   -4.9500    0.0000 C   0  0  0  0  0  0  0  0  0  0  0  0
    2.8579   -4.1250    0.0000 C   0  0  0  0  0  0  0  0  0  0  0  0
    2.1434   -1.2375    0.0000 C   0  0  0  0  0  0  0  0  0  0  0  0
    1.4289   -1.6500    0.0000 C   0  0  0  0  0  0  0  0  0  0  0  0
    0.7145   -1.2375    0.0000 C   0  0  0  0  0  0  0  0  0  0  0  0
    0.0000   -1.6500    0.0000 O   0  0  0  0  0  0  0  0  0  0  0  0
   -0.7145   -1.2375    0.0000 C   0  0  0  0  0  0  0  0  0  0  0  0
  1  2  1  0  0  0  0
  2  3  1  0  0  0  0
  3  4  2  0  0  0  0
  3 22  1  0  0  0  0
  4  5  1  0  0  0  0
  5  6  1  0  0  0  0
  5 20  2  0  0  0  0
  6  7  1  0  0  0  0
  7  8  1  0  0  0  0
  8  9  1  0  0  0  0
  8 10  1  0  0  0  0
 10 11  1  0  0  0  0
 10 20  1  0  0  0  0
 11 12  1  0  0  0  0
 12 13  1  0  0  0  0
 13 14  2  0  0  0  0
 13 19  1  0  0  0  0
 14 15  1  0  0  0  0
 15 16  2  0  0  0  0
 16 17  1  0  0  0  0
 16 18  1  0  0  0  0
 18 19  2  0  0  0  0
 20 21  1  0  0  0  0
 21 22  2  0  0  0  0
 22 23  1  0  0  0  0
 23 24  1  0  0  0  0
M  END
$$$$

 OpenBabel12191814062D

 26 29  0  0  0  0  0  0  0  0999 V2000
   -0.7145   -0.4125    0.0000 C   0  0  0  0  0  0  0  0  0  0  0  0
    0.0000    0.0000    0.0000 O   0  0  0  0  0  0  0  0  0  0  0  0
    0.7145   -0.4125    0.0000 C   0  0  0  0  0  0  0  0  0  0  0  0
    1.4289    0.0000    0.0000 C   0  0  0  0  0  0  0  0  0  0  0  0
    2.1434   -0.4125    0.0000 C   0  0  0  0  0  0  0  0  0  0  0  0
    2.8579    0.0000    0.0000 C   0  0  0  0  0  0  0  0  0  0  0  0
    3.5724   -0.4125    0.0000 C   0  0  0  0  0  0  0  0  0  0  0  0
    3.5724   -1.2375    0.0000 N   0  0  0  0  0  0  0  0  0  0  0  0
    4.2868   -1.6500    0.0000 C   0  0  0  0  0  0  0  0  0  0  0  0
    2.8579   -1.6500    0.0000 C   0  0  3  0  0  0  0  0  0  0  0  0
    2.8579   -2.4750    0.0000 C   0  0  0  0  0  0  0  0  0  0  0  0
    3.5724   -2.8875    0.0000 C   0  0  0  0  0  0  0  0  0  0  0  0
    3.5724   -3.7125    0.0000 C   0  0  0  0  0  0  0  0  0  0  0  0
    4.2868   -4.1250    0.0000 C   0  0  0  0  0  0  0  0  0  0  0  0
    4.2868   -4.9500    0.0000 C   0  0  0  0  0  0  0  0  0  0  0  0
    3.5724   -5.3625    0.0000 C   0  0  0  0  0  0  0  0  0  0  0  0
    3.4008   -6.1695    0.0000 O   0  0  0  0  0  0  0  0  0  0  0  0
    2.5803   -6.2557    0.0000 C   0  0  0  0  0  0  0  0  0  0  0  0
    2.2448   -5.5020    0.0000 O   0  0  0  0  0  0  0  0  0  0  0  0
    2.8579   -4.9500    0.0000 C   0  0  0  0  0  0  0  0  0  0  0  0
    2.8579   -4.1250    0.0000 C   0  0  0  0  0  0  0  0  0  0  0  0
    2.1434   -1.2375    0.0000 C   0  0  0  0  0  0  0  0  0  0  0  0
    1.4289   -1.6500    0.0000 C   0  0  0  0  0  0  0  0  0  0  0  0
    0.7145   -1.2375    0.0000 C   0  0  0  0  0  0  0  0  0  0  0  0
    0.0000   -1.6500    0.0000 O   0  0  0  0  0  0  0  0  0  0  0  0
   -0.7145   -1.2375    0.0000 C   0  0  0  0  0  0  0  0  0  0  0  0
  1  2  1  0  0  0  0
  2  3  1  0  0  0  0
  3  4  2  0  0  0  0
  3 24  1  0  0  0  0
  4  5  1  0  0  0  0
  5  6  1  0  0  0  0
  5 22  2  0  0  0  0
  6  7  1  0  0  0  0
  7  8  1  0  0  0  0
  8  9  1  0  0  0  0
  8 10  1  0  0  0  0
 10 11  1  0  0  0  0
 10 22  1  0  0  0  0
 11 12  1  0  0  0  0
 12 13  1  0  0  0  0
 13 14  2  0  0  0  0
 13 21  1  0  0  0  0
 14 15  1  0  0  0  0
 15 16  2  0  0  0  0
 16 17  1  0  0  0  0
 16 20  1  0  0  0  0
 17 18  1  0  0  0  0
 18 19  1  0  0  0  0
 19 20  1  0  0  0  0
 20 21  2  0  0  0  0
 22 23  1  0  0  0  0
 23 24  2  0  0  0  0
 24 25  1  0  0  0  0
 25 26  1  0  0  0  0
M  END
$$$$

 OpenBabel12191814062D

 41 45  0  0  0  0  0  0  0  0999 V2000
    2.8579   -6.6000    0.0000 C   0  0  0  0  0  0  0  0  0  0  0  0
    2.1434   -6.1875    0.0000 O   0  0  0  0  0  0  0  0  0  0  0  0
    2.1434   -5.3625    0.0000 C   0  0  0  0  0  0  0  0  0  0  0  0
    1.4289   -4.9500    0.0000 C   0  0  0  0  0  0  0  0  0  0  0  0
    1.4289   -4.1250    0.0000 C   0  0  0  0  0  0  0  0  0  0  0  0
    0.7145   -3.7125    0.0000 C   0  0  0  0  0  0  0  0  0  0  0  0
    0.7145   -2.8875    0.0000 C   0  0  0  0  0  0  0  0  0  0  0  0
    1.4289   -2.4750    0.0000 N   0  0  0  0  0  0  0  0  0  0  0  0
    2.1434   -2.8875    0.0000 C   0  0  0  0  0  0  0  0  0  0  0  0
    2.1434   -3.7125    0.0000 C   0  0  0  0  0  0  0  0  0  0  0  0
    2.8579   -4.1250    0.0000 C   0  0  0  0  0  0  0  0  0  0  0  0
    2.8579   -4.9500    0.0000 C   0  0  0  0  0  0  0  0  0  0  0  0
    3.5724   -5.3625    0.0000 O   0  0  0  0  0  0  0  0  0  0  0  0
    3.5724   -6.1875    0.0000 C   0  0  0  0  0  0  0  0  0  0  0  0
    1.4289   -1.6500    0.0000 C   0  0  0  0  0  0  0  0  0  0  0  0
    0.7145   -1.2375    0.0000 N   0  0  0  0  0  0  0  0  0  0  0  0
    0.7145   -0.4125    0.0000 C   0  0  0  0  0  0  0  0  0  0  0  0
    0.0000    0.0000    0.0000 N   0  0  0  0  0  0  0  0  0  0  0  0
   -0.7145   -0.4125    0.0000 C   0  0  0  0  0  0  0  0  0  0  0  0
   -1.4289    0.0000    0.0000 C   0  0  0  0  0  0  0  0  0  0  0  0
   -2.1434   -0.4125    0.0000 C   0  0  0  0  0  0  0  0  0  0  0  0
   -2.1434   -1.2375    0.0000 C   0  0  0  0  0  0  0  0  0  0  0  0
   -2.8579   -1.6500    0.0000 C   0  0  0  0  0  0  0  0  0  0  0  0
   -3.5724   -1.2375    0.0000 C   0  0  0  0  0  0  0  0  0  0  0  0
   -3.5724   -0.4125    0.0000 C   0  0  0  0  0  0  0  0  0  0  0  0
   -4.2868   -0.0000    0.0000 O   0  0  0  0  0  0  0  0  0  0  0  0
   -4.2868    0.8250    0.0000 C   0  0  0  0  0  0  0  0  0  0  0  0
   -2.8579    0.0000    0.0000 C   0  0  0  0  0  0  0  0  0  0  0  0
   -2.8579    0.8250    0.0000 O   0  0  0  0  0  0  0  0  0  0  0  0
   -2.1434    1.2375    0.0000 C   0  0  0  0  0  0  0  0  0  0  0  0
    1.4289    0.0000    0.0000 N   0  0  0  0  0  0  0  0  0  0  0  0
    2.1434   -0.4125    0.0000 C   0  0  0  0  0  0  0  0  0  0  0  0
    2.8579    0.0000    0.0000 C   0  0  0  0  0  0  0  0  0  0  0  0
    3.5724   -0.4125    0.0000 C   0  0  0  0  0  0  0  0  0  0  0  0
    4.2868   -0.0000    0.0000 O   0  0  0  0  0  0  0  0  0  0  0  0
    5.0013   -0.4125    0.0000 C   0  0  0  0  0  0  0  0  0  0  0  0
    3.5724   -1.2375    0.0000 C   0  0  0  0  0  0  0  0  0  0  0  0
    4.2868   -1.6500    0.0000 O   0  0  0  0  0  0  0  0  0  0  0  0
    4.2868   -2.4750    0.0000 C   0  0  0  0  0  0  0  0  0  0  0  0
    2.8579   -1.6500    0.0000 C   0  0  0  0  0  0  0  0  0  0  0  0
    2.1434   -1.2375    0.0000 C   0  0  0  0  0  0  0  0  0  0  0  0
  1  2  1  0  0  0  0
  2  3  1  0  0  0  0
  3  4  2  0  0  0  0
  3 12  1  0  0  0  0
  4  5  1  0  0  0  0
  5  6  1  0  0  0  0
  5 10  2  0  0  0  0
  6  7  1  0  0  0  0
  7  8  1  0  0  0  0
  8  9  1  0  0  0  0
  8 15  1  0  0  0  0
  9 10  1  0  0  0  0
 10 11  1  0  0  0  0
 11 12  2  0  0  0  0
 12 13  1  0  0  0  0
 13 14  1  0  0  0  0
 15 16  2  0  0  0  0
 15 41  1  0  0  0  0
 16 17  1  0  0  0  0
 17 18  1  0  0  0  0
 17 31  2  0  0  0  0
 18 19  1  0  0  0  0
 19 20  1  0  0  0  0
 20 21  1  0  0  0  0
 21 22  2  0  0  0  0
 21 28  1  0  0  0  0
 22 23  1  0  0  0  0
 23 24  2  0  0  0  0
 24 25  1  0  0  0  0
 25 26  1  0  0  0  0
 25 28  2  0  0  0  0
 26 27  1  0  0  0  0
 28 29  1  0  0  0  0
 29 30  1  0  0  0  0
 31 32  1  0  0  0  0
 32 33  2  0  0  0  0
 32 41  1  0  0  0  0
 33 34  1  0  0  0  0
 34 35  1  0  0  0  0
 34 37  2  0  0  0  0
 35 36  1  0  0  0  0
 37 38  1  0  0  0  0
 37 40  1  0  0  0  0
 38 39  1  0  0  0  0
 40 41  2  0  0  0  0
M  END
$$$$

 OpenBabel12191814062D

 43 48  0  0  0  0  0  0  0  0999 V2000
    5.7158   -4.1250    0.0000 C   0  0  0  0  0  0  0  0  0  0  0  0
    6.4302   -3.7125    0.0000 O   0  0  0  0  0  0  0  0  0  0  0  0
    7.1447   -4.1250    0.0000 C   0  0  0  0  0  0  0  0  0  0  0  0
    7.8592   -3.7125    0.0000 C   0  0  0  0  0  0  0  0  0  0  0  0
    8.5737   -4.1250    0.0000 C   0  0  0  0  0  0  0  0  0  0  0  0
    9.2881   -3.7125    0.0000 C   0  0  0  0  0  0  0  0  0  0  0  0
   10.0026   -4.1250    0.0000 C   0  0  0  0  0  0  0  0  0  0  0  0
   10.0026   -4.9500    0.0000 N   0  0  0  0  0  0  0  0  0  0  0  0
   10.7171   -5.3625    0.0000 C   0  0  0  0  0  0  0  0  0  0  0  0
   10.7171   -6.1875    0.0000 C   0  0  0  0  0  0  0  0  0  0  0  0
   11.4315   -6.6000    0.0000 C   0  0  0  0  0  0  0  0  0  0  0  0
   11.4315   -7.4250    0.0000 C   0  0  0  0  0  0  0  0  0  0  0  0
   10.7171   -7.8375    0.0000 C   0  0  0  0  0  0  0  0  0  0  0  0
   10.7171   -8.6625    0.0000 N   0  0  0  0  0  0  0  0  0  0  0  0
   10.0026   -9.0750    0.0000 C   0  0  0  0  0  0  0  0  0  0  0  0
    9.2881   -8.6625    0.0000 O   0  0  0  0  0  0  0  0  0  0  0  0
   10.0026   -9.9000    0.0000 C   0  0  0  0  0  0  0  0  0  0  0  0
   10.7171  -10.3125    0.0000 C   0  0  0  0  0  0  0  0  0  0  0  0
   10.7171  -11.1375    0.0000 C   0  0  0  0  0  0  0  0  0  0  0  0
   10.0026  -11.5500    0.0000 C   0  0  0  0  0  0  0  0  0  0  0  0
    9.2881  -11.1375    0.0000 C   0  0  0  0  0  0  0  0  0  0  0  0
    9.2881  -10.3125    0.0000 C   0  0  0  0  0  0  0  0  0  0  0  0
    8.5737   -9.9000    0.0000 N   0  0  0  0  0  0  0  0  0  0  0  0
    7.8592  -10.3125    0.0000 C   0  0  0  0  0  0  0  0  0  0  0  0
    7.1447   -9.9000    0.0000 O   0  0  0  0  0  0  0  0  0  0  0  0
    7.8592  -11.1375    0.0000 C   0  0  0  0  0  0  0  0  0  0  0  0
    8.5737  -11.5500    0.0000 C   0  0  0  0  0  0  0  0  0  0  0  0
    8.5737  -12.3750    0.0000 N   0  0  0  0  0  0  0  0  0  0  0  0
    7.8592  -12.7875    0.0000 C   0  0  0  0  0  0  0  0  0  0  0  0
    7.8592  -13.6125    0.0000 C   0  0  0  0  0  0  0  0  0  0  0  0
    7.1447  -14.0250    0.0000 C   0  0  0  0  0  0  0  0  0  0  0  0
    6.4302  -13.6125    0.0000 C   0  0  0  0  0  0  0  0  0  0  0  0
    6.4302  -12.7875    0.0000 C   0  0  0  0  0  0  0  0  0  0  0  0
    7.1447  -12.3750    0.0000 C   0  0  0  0  0  0  0  0  0  0  0  0
    7.1447  -11.5500    0.0000 C   0  0  0  0  0  0  0  0  0  0  0  0
   10.0026   -7.4250    0.0000 C   0  0  0  0  0  0  0  0  0  0  0  0
   10.0026   -6.6000    0.0000 C   0  0  0  0  0  0  0  0  0  0  0  0
    9.2881   -5.3625    0.0000 C   0  0  0  0  0  0  0  0  0  0  0  0
    8.5737   -4.9500    0.0000 C   0  0  0  0  0  0  0  0  0  0  0  0
    7.8592   -5.3625    0.0000 C   0  0  0  0  0  0  0  0  0  0  0  0
    7.1447   -4.9500    0.0000 C   0  0  0  0  0  0  0  0  0  0  0  0
    6.4302   -5.3625    0.0000 O   0  0  0  0  0  0  0  0  0  0  0  0
    5.7158   -4.9500    0.0000 C   0  0  0  0  0  0  0  0  0  0  0  0
  1  2  1  0  0  0  0
  2  3  1  0  0  0  0
  3  4  2  0  0  0  0
  3 41  1  0  0  0  0
  4  5  1  0  0  0  0
  5  6  1  0  0  0  0
  5 39  2  0  0  0  0
  6  7  1  0  0  0  0
  7  8  1  0  0  0  0
  8  9  1  0  0  0  0
  8 38  1  0  0  0  0
  9 10  1  0  0  0  0
 10 11  2  0  0  0  0
 10 37  1  0  0  0  0
 11 12  1  0  0  0  0
 12 13  2  0  0  0  0
 13 14  1  0  0  0  0
 13 36  1  0  0  0  0
 14 15  1  0  0  0  0
 15 16  2  0  0  0  0
 15 17  1  0  0  0  0
 17 18  2  0  0  0  0
 17 22  1  0  0  0  0
 18 19  1  0  0  0  0
 19 20  2  0  0  0  0
 20 21  1  0  0  0  0
 21 22  2  0  0  0  0
 22 23  1  0  0  0  0
 23 24  1  0  0  0  0
 24 25  2  0  0  0  0
 24 26  1  0  0  0  0
 26 27  2  0  0  0  0
 26 35  1  0  0  0  0
 27 28  1  0  0  0  0
 28 29  2  0  0  0  0
 29 30  1  0  0  0  0
 29 34  1  0  0  0  0
 30 31  2  0  0  0  0
 31 32  1  0  0  0  0
 32 33  2  0  0  0  0
 33 34  1  0  0  0  0
 34 35  2  0  0  0  0
 36 37  2  0  0  0  0
 38 39  1  0  0  0  0
 39 40  1  0  0  0  0
 40 41  2  0  0  0  0
 41 42  1  0  0  0  0
 42 43  1  0  0  0  0
M  END
$$$$

 OpenBabel12191814062D

 51 57  0  0  0  0  0  0  0  0999 V2000
    8.4347   -1.8790    0.0000 C   0  0  0  0  0  0  0  0  0  0  0  0
    9.1491   -1.4665    0.0000 O   0  0  0  0  0  0  0  0  0  0  0  0
    9.8636   -1.8790    0.0000 C   0  0  0  0  0  0  0  0  0  0  0  0
   10.5781   -1.4665    0.0000 C   0  0  0  0  0  0  0  0  0  0  0  0
   11.2925   -1.8790    0.0000 C   0  0  0  0  0  0  0  0  0  0  0  0
   12.0070   -1.4665    0.0000 C   0  0  0  0  0  0  0  0  0  0  0  0
   12.7215   -1.8790    0.0000 C   0  0  0  0  0  0  0  0  0  0  0  0
   12.7215   -2.7040    0.0000 N   0  0  0  0  0  0  0  0  0  0  0  0
   13.4360   -3.1165    0.0000 C   0  0  0  0  0  0  0  0  0  0  0  0
   14.1504   -2.7040    0.0000 C   0  0  0  0  0  0  0  0  0  0  0  0
   14.8649   -3.1165    0.0000 C   0  0  0  0  0  0  0  0  0  0  0  0
   15.5794   -2.7040    0.0000 C   0  0  0  0  0  0  0  0  0  0  0  0
   16.2938   -3.1165    0.0000 C   0  0  0  0  0  0  0  0  0  0  0  0
   16.2938   -3.9415    0.0000 C   0  0  0  0  0  0  0  0  0  0  0  0
   15.5794   -4.3540    0.0000 C   0  0  0  0  0  0  0  0  0  0  0  0
   14.8649   -3.9415    0.0000 C   0  0  0  0  0  0  0  0  0  0  0  0
   17.0083   -4.3540    0.0000 N   0  0  0  0  0  0  0  0  0  0  0  0
   17.7620   -4.0185    0.0000 N   0  0  0  0  0  0  0  0  0  0  0  0
   18.3140   -4.6316    0.0000 N   0  0  0  0  0  0  0  0  0  0  0  0
   17.9015   -5.3460    0.0000 C   0  0  0  0  0  0  0  0  0  0  0  0
   17.0945   -5.1745    0.0000 N   0  0  0  0  0  0  0  0  0  0  0  0
   18.2371   -6.0997    0.0000 C   0  0  0  0  0  0  0  0  0  0  0  0
   19.0576   -6.1860    0.0000 C   0  0  0  0  0  0  0  0  0  0  0  0
   19.3931   -6.9396    0.0000 C   0  0  0  0  0  0  0  0  0  0  0  0
   20.2136   -7.0259    0.0000 O   0  0  0  0  0  0  0  0  0  0  0  0
   20.5492   -7.7795    0.0000 C   0  0  0  0  0  0  0  0  0  0  0  0
   18.9082   -7.6071    0.0000 C   0  0  0  0  0  0  0  0  0  0  0  0
   19.2437   -8.3607    0.0000 O   0  0  0  0  0  0  0  0  0  0  0  0
   20.0642   -8.4470    0.0000 C   0  0  0  0  0  0  0  0  0  0  0  0
   18.0877   -7.5208    0.0000 C   0  0  0  0  0  0  0  0  0  0  0  0
   17.7522   -6.7672    0.0000 C   0  0  0  0  0  0  0  0  0  0  0  0
   16.9317   -6.6809    0.0000 N   0  0  0  0  0  0  0  0  0  0  0  0
   16.4467   -7.3484    0.0000 C   0  0  0  0  0  0  0  0  0  0  0  0
   15.6263   -7.2621    0.0000 O   0  0  0  0  0  0  0  0  0  0  0  0
   16.7823   -8.1020    0.0000 C   0  0  0  0  0  0  0  0  0  0  0  0
   17.6028   -8.1883    0.0000 C   0  0  0  0  0  0  0  0  0  0  0  0
   17.9383   -8.9419    0.0000 C   0  0  0  0  0  0  0  0  0  0  0  0
   18.7588   -9.0282    0.0000 O   0  0  0  0  0  0  0  0  0  0  0  0
   17.4534   -9.6094    0.0000 C   0  0  0  0  0  0  0  0  0  0  0  0
   17.7890  -10.3631    0.0000 C   0  0  0  0  0  0  0  0  0  0  0  0
   17.3041  -11.0305    0.0000 C   0  0  0  0  0  0  0  0  0  0  0  0
   16.4836  -10.9443    0.0000 C   0  0  0  0  0  0  0  0  0  0  0  0
   16.1480  -10.1906    0.0000 C   0  0  0  0  0  0  0  0  0  0  0  0
   16.6329   -9.5231    0.0000 C   0  0  0  0  0  0  0  0  0  0  0  0
   16.2974   -8.7695    0.0000 O   0  0  0  0  0  0  0  0  0  0  0  0
   12.0070   -3.1165    0.0000 C   0  0  0  0  0  0  0  0  0  0  0  0
   11.2925   -2.7040    0.0000 C   0  0  0  0  0  0  0  0  0  0  0  0
   10.5781   -3.1165    0.0000 C   0  0  0  0  0  0  0  0  0  0  0  0
    9.8636   -2.7040    0.0000 C   0  0  0  0  0  0  0  0  0  0  0  0
    9.1491   -3.1165    0.0000 O   0  0  0  0  0  0  0  0  0  0  0  0
    8.4347   -2.7040    0.0000 C   0  0  0  0  0  0  0  0  0  0  0  0
  1  2  1  0  0  0  0
  2  3  1  0  0  0  0
  3  4  2  0  0  0  0
  3 49  1  0  0  0  0
  4  5  1  0  0  0  0
  5  6  1  0  0  0  0
  5 47  2  0  0  0  0
  6  7  1  0  0  0  0
  7  8  1  0  0  0  0
  8  9  1  0  0  0  0
  8 46  1  0  0  0  0
  9 10  1  0  0  0  0
 10 11  1  0  0  0  0
 11 12  2  0  0  0  0
 11 16  1  0  0  0  0
 12 13  1  0  0  0  0
 13 14  2  0  0  0  0
 14 15  1  0  0  0  0
 14 17  1  0  0  0  0
 15 16  2  0  0  0  0
 17 18  1  0  0  0  0
 17 21  1  0  0  0  0
 18 19  2  0  0  0  0
 19 20  1  0  0  0  0
 20 21  2  0  0  0  0
 20 22  1  0  0  0  0
 22 23  2  0  0  0  0
 22 31  1  0  0  0  0
 23 24  1  0  0  0  0
 24 25  1  0  0  0  0
 24 27  2  0  0  0  0
 25 26  1  0  0  0  0
 27 28  1  0  0  0  0
 27 30  1  0  0  0  0
 28 29  1  0  0  0  0
 30 31  2  0  0  0  0
 31 32  1  0  0  0  0
 32 33  1  0  0  0  0
 33 34  2  0  0  0  0
 33 35  1  0  0  0  0
 35 36  2  0  0  0  0
 35 45  1  0  0  0  0
 36 37  1  0  0  0  0
 37 38  2  0  0  0  0
 37 39  1  0  0  0  0
 39 40  2  0  0  0  0
 39 44  1  0  0  0  0
 40 41  1  0  0  0  0
 41 42  2  0  0  0  0
 42 43  1  0  0  0  0
 43 44  2  0  0  0  0
 44 45  1  0  0  0  0
 46 47  1  0  0  0  0
 47 48  1  0  0  0  0
 48 49  2  0  0  0  0
 49 50  1  0  0  0  0
 50 51  1  0  0  0  0
M  END
$$$$

 OpenBabel12191814062D

 48 53  0  0  0  0  0  0  0  0999 V2000
    7.1447   -6.6000    0.0000 C   0  0  0  0  0  0  0  0  0  0  0  0
    7.8592   -6.1875    0.0000 O   0  0  0  0  0  0  0  0  0  0  0  0
    8.5737   -6.6000    0.0000 C   0  0  0  0  0  0  0  0  0  0  0  0
    9.2881   -6.1875    0.0000 C   0  0  0  0  0  0  0  0  0  0  0  0
   10.0026   -6.6000    0.0000 C   0  0  0  0  0  0  0  0  0  0  0  0
   10.7171   -6.1875    0.0000 C   0  0  0  0  0  0  0  0  0  0  0  0
   11.4315   -6.6000    0.0000 C   0  0  0  0  0  0  0  0  0  0  0  0
   11.4315   -7.4250    0.0000 N   0  0  0  0  0  0  0  0  0  0  0  0
   12.1460   -7.8375    0.0000 C   0  0  0  0  0  0  0  0  0  0  0  0
   12.8605   -7.4250    0.0000 C   0  0  0  0  0  0  0  0  0  0  0  0
   13.5749   -7.8375    0.0000 C   0  0  0  0  0  0  0  0  0  0  0  0
   14.2894   -7.4250    0.0000 C   0  0  0  0  0  0  0  0  0  0  0  0
   15.0039   -7.8375    0.0000 C   0  0  0  0  0  0  0  0  0  0  0  0
   15.0039   -8.6625    0.0000 C   0  0  0  0  0  0  0  0  0  0  0  0
   15.7184   -9.0750    0.0000 N   0  0  0  0  0  0  0  0  0  0  0  0
   15.7184   -9.9000    0.0000 C   0  0  0  0  0  0  0  0  0  0  0  0
   15.0039  -10.3125    0.0000 O   0  0  0  0  0  0  0  0  0  0  0  0
   16.4328  -10.3125    0.0000 C   0  0  0  0  0  0  0  0  0  0  0  0
   17.1473   -9.9000    0.0000 C   0  0  0  0  0  0  0  0  0  0  0  0
   17.8618  -10.3125    0.0000 C   0  0  0  0  0  0  0  0  0  0  0  0
   18.5762   -9.9000    0.0000 O   0  0  0  0  0  0  0  0  0  0  0  0
   19.2907  -10.3125    0.0000 C   0  0  0  0  0  0  0  0  0  0  0  0
   17.8618  -11.1375    0.0000 C   0  0  0  0  0  0  0  0  0  0  0  0
   18.5762  -11.5500    0.0000 O   0  0  0  0  0  0  0  0  0  0  0  0
   18.5762  -12.3750    0.0000 C   0  0  0  0  0  0  0  0  0  0  0  0
   17.1473  -11.5500    0.0000 C   0  0  0  0  0  0  0  0  0  0  0  0
   16.4328  -11.1375    0.0000 C   0  0  0  0  0  0  0  0  0  0  0  0
   15.7184  -11.5500    0.0000 N   0  0  0  0  0  0  0  0  0  0  0  0
   15.7184  -12.3750    0.0000 C   0  0  0  0  0  0  0  0  0  0  0  0
   15.0039  -12.7875    0.0000 O   0  0  0  0  0  0  0  0  0  0  0  0
   16.4328  -12.7875    0.0000 C   0  0  0  0  0  0  0  0  0  0  0  0
   17.1473  -12.3750    0.0000 C   0  0  0  0  0  0  0  0  0  0  0  0
   17.8618  -12.7875    0.0000 N   0  0  0  0  0  0  0  0  0  0  0  0
   17.8618  -13.6125    0.0000 C   0  0  0  0  0  0  0  0  0  0  0  0
   18.5762  -14.0250    0.0000 C   0  0  0  0  0  0  0  0  0  0  0  0
   18.5762  -14.8500    0.0000 C   0  0  0  0  0  0  0  0  0  0  0  0
   17.8618  -15.2625    0.0000 C   0  0  0  0  0  0  0  0  0  0  0  0
   17.1473  -14.8500    0.0000 C   0  0  0  0  0  0  0  0  0  0  0  0
   17.1473  -14.0250    0.0000 C   0  0  0  0  0  0  0  0  0  0  0  0
   16.4328  -13.6125    0.0000 C   0  0  0  0  0  0  0  0  0  0  0  0
   14.2894   -9.0750    0.0000 C   0  0  0  0  0  0  0  0  0  0  0  0
   13.5749   -8.6625    0.0000 C   0  0  0  0  0  0  0  0  0  0  0  0
   10.7171   -7.8375    0.0000 C   0  0  0  0  0  0  0  0  0  0  0  0
   10.0026   -7.4250    0.0000 C   0  0  0  0  0  0  0  0  0  0  0  0
    9.2881   -7.8375    0.0000 C   0  0  0  0  0  0  0  0  0  0  0  0
    8.5737   -7.4250    0.0000 C   0  0  0  0  0  0  0  0  0  0  0  0
    7.8592   -7.8375    0.0000 O   0  0  0  0  0  0  0  0  0  0  0  0
    7.1447   -7.4250    0.0000 C   0  0  0  0  0  0  0  0  0  0  0  0
  1  2  1  0  0  0  0
  2  3  1  0  0  0  0
  3  4  2  0  0  0  0
  3 46  1  0  0  0  0
  4  5  1  0  0  0  0
  5  6  1  0  0  0  0
  5 44  2  0  0  0  0
  6  7  1  0  0  0  0
  7  8  1  0  0  0  0
  8  9  1  0  0  0  0
  8 43  1  0  0  0  0
  9 10  1  0  0  0  0
 10 11  1  0  0  0  0
 11 12  2  0  0  0  0
 11 42  1  0  0  0  0
 12 13  1  0  0  0  0
 13 14  2  0  0  0  0
 14 15  1  0  0  0  0
 14 41  1  0  0  0  0
 15 16  1  0  0  0  0
 16 17  2  0  0  0  0
 16 18  1  0  0  0  0
 18 19  2  0  0  0  0
 18 27  1  0  0  0  0
 19 20  1  0  0  0  0
 20 21  1  0  0  0  0
 20 23  2  0  0  0  0
 21 22  1  0  0  0  0
 23 24  1  0  0  0  0
 23 26  1  0  0  0  0
 24 25  1  0  0  0  0
 26 27  2  0  0  0  0
 27 28  1  0  0  0  0
 28 29  1  0  0  0  0
 29 30  2  0  0  0  0
 29 31  1  0  0  0  0
 31 32  2  0  0  0  0
 31 40  1  0  0  0  0
 32 33  1  0  0  0  0
 33 34  2  0  0  0  0
 34 35  1  0  0  0  0
 34 39  1  0  0  0  0
 35 36  2  0  0  0  0
 36 37  1  0  0  0  0
 37 38  2  0  0  0  0
 38 39  1  0  0  0  0
 39 40  2  0  0  0  0
 41 42  2  0  0  0  0
 43 44  1  0  0  0  0
 44 45  1  0  0  0  0
 45 46  2  0  0  0  0
 46 47  1  0  0  0  0
 47 48  1  0  0  0  0
M  END
$$$$

 OpenBabel12191814062D

 35 39  0  0  0  0  0  0  0  0999 V2000
    1.4289   -9.0750    0.0000 C   0  0  0  0  0  0  0  0  0  0  0  0
    2.1434   -8.6625    0.0000 O   0  0  0  0  0  0  0  0  0  0  0  0
    2.8579   -9.0750    0.0000 C   0  0  0  0  0  0  0  0  0  0  0  0
    3.5724   -8.6625    0.0000 C   0  0  0  0  0  0  0  0  0  0  0  0
    4.2868   -9.0750    0.0000 C   0  0  0  0  0  0  0  0  0  0  0  0
    5.0013   -8.6625    0.0000 C   0  0  0  0  0  0  0  0  0  0  0  0
    5.7158   -9.0750    0.0000 C   0  0  0  0  0  0  0  0  0  0  0  0
    5.7158   -9.9000    0.0000 N   0  0  0  0  0  0  0  0  0  0  0  0
    6.4302  -10.3125    0.0000 C   0  0  0  0  0  0  0  0  0  0  0  0
    7.1447   -9.9000    0.0000 C   0  0  0  0  0  0  0  0  0  0  0  0
    7.8592  -10.3125    0.0000 C   0  0  0  0  0  0  0  0  0  0  0  0
    8.5737   -9.9000    0.0000 C   0  0  0  0  0  0  0  0  0  0  0  0
    9.2881  -10.3125    0.0000 C   0  0  0  0  0  0  0  0  0  0  0  0
    9.2881  -11.1375    0.0000 C   0  0  0  0  0  0  0  0  0  0  0  0
   10.0026  -11.5500    0.0000 N   0  0  0  0  0  0  0  0  0  0  0  0
   10.7171  -11.1375    0.0000 C   0  0  0  0  0  0  0  0  0  0  0  0
   10.7171  -10.3125    0.0000 O   0  0  0  0  0  0  0  0  0  0  0  0
   11.4315  -11.5500    0.0000 C   0  0  0  0  0  0  0  0  0  0  0  0
   12.1460  -11.1375    0.0000 C   0  0  0  0  0  0  0  0  0  0  0  0
   12.8605  -11.5500    0.0000 C   0  0  0  0  0  0  0  0  0  0  0  0
   13.5749  -11.1375    0.0000 C   0  0  0  0  0  0  0  0  0  0  0  0
   14.2894  -11.5500    0.0000 C   0  0  0  0  0  0  0  0  0  0  0  0
   14.2894  -12.3750    0.0000 C   0  0  0  0  0  0  0  0  0  0  0  0
   13.5749  -12.7875    0.0000 C   0  0  0  0  0  0  0  0  0  0  0  0
   12.8605  -12.3750    0.0000 C   0  0  0  0  0  0  0  0  0  0  0  0
   12.1460  -12.7875    0.0000 C   0  0  0  0  0  0  0  0  0  0  0  0
   11.4315  -12.3750    0.0000 N   0  0  0  0  0  0  0  0  0  0  0  0
    8.5737  -11.5500    0.0000 C   0  0  0  0  0  0  0  0  0  0  0  0
    7.8592  -11.1375    0.0000 C   0  0  0  0  0  0  0  0  0  0  0  0
    5.0013  -10.3125    0.0000 C   0  0  0  0  0  0  0  0  0  0  0  0
    4.2868   -9.9000    0.0000 C   0  0  0  0  0  0  0  0  0  0  0  0
    3.5724  -10.3125    0.0000 C   0  0  0  0  0  0  0  0  0  0  0  0
    2.8579   -9.9000    0.0000 C   0  0  0  0  0  0  0  0  0  0  0  0
    2.1434  -10.3125    0.0000 O   0  0  0  0  0  0  0  0  0  0  0  0
    1.4289   -9.9000    0.0000 C   0  0  0  0  0  0  0  0  0  0  0  0
  1  2  1  0  0  0  0
  2  3  1  0  0  0  0
  3  4  2  0  0  0  0
  3 33  1  0  0  0  0
  4  5  1  0  0  0  0
  5  6  1  0  0  0  0
  5 31  2  0  0  0  0
  6  7  1  0  0  0  0
  7  8  1  0  0  0  0
  8  9  1  0  0  0  0
  8 30  1  0  0  0  0
  9 10  1  0  0  0  0
 10 11  1  0  0  0  0
 11 12  2  0  0  0  0
 11 29  1  0  0  0  0
 12 13  1  0  0  0  0
 13 14  2  0  0  0  0
 14 15  1  0  0  0  0
 14 28  1  0  0  0  0
 15 16  1  0  0  0  0
 16 17  2  0  0  0  0
 16 18  1  0  0  0  0
 18 19  2  0  0  0  0
 18 27  1  0  0  0  0
 19 20  1  0  0  0  0
 20 21  2  0  0  0  0
 20 25  1  0  0  0  0
 21 22  1  0  0  0  0
 22 23  2  0  0  0  0
 23 24  1  0  0  0  0
 24 25  2  0  0  0  0
 25 26  1  0  0  0  0
 26 27  2  0  0  0  0
 28 29  2  0  0  0  0
 30 31  1  0  0  0  0
 31 32  1  0  0  0  0
 32 33  2  0  0  0  0
 33 34  1  0  0  0  0
 34 35  1  0  0  0  0
M  END
$$$$

 OpenBabel12191814062D

 32 35  0  0  0  0  0  0  0  0999 V2000
   -0.7145   -0.4125    0.0000 C   0  0  0  0  0  0  0  0  0  0  0  0
    0.0000    0.0000    0.0000 O   0  0  0  0  0  0  0  0  0  0  0  0
    0.7145   -0.4125    0.0000 C   0  0  0  0  0  0  0  0  0  0  0  0
    1.4289    0.0000    0.0000 C   0  0  0  0  0  0  0  0  0  0  0  0
    2.1434   -0.4125    0.0000 C   0  0  0  0  0  0  0  0  0  0  0  0
    2.8579    0.0000    0.0000 C   0  0  0  0  0  0  0  0  0  0  0  0
    3.5724   -0.4125    0.0000 C   0  0  0  0  0  0  0  0  0  0  0  0
    3.5724   -1.2375    0.0000 N   0  0  0  0  0  0  0  0  0  0  0  0
    4.2868   -1.6500    0.0000 C   0  0  0  0  0  0  0  0  0  0  0  0
    5.0013   -1.2375    0.0000 C   0  0  0  0  0  0  0  0  0  0  0  0
    5.7158   -1.6500    0.0000 C   0  0  0  0  0  0  0  0  0  0  0  0
    6.4302   -1.2375    0.0000 C   0  0  0  0  0  0  0  0  0  0  0  0
    7.1447   -1.6500    0.0000 C   0  0  0  0  0  0  0  0  0  0  0  0
    7.1447   -2.4750    0.0000 C   0  0  0  0  0  0  0  0  0  0  0  0
    7.8592   -2.8875    0.0000 N   0  0  0  0  0  0  0  0  0  0  0  0
    8.5737   -2.4750    0.0000 C   0  0  0  0  0  0  0  0  0  0  0  0
    8.5737   -1.6500    0.0000 O   0  0  0  0  0  0  0  0  0  0  0  0
    9.2881   -2.8875    0.0000 C   0  0  0  0  0  0  0  0  0  0  0  0
   10.0026   -2.4750    0.0000 C   0  0  0  0  0  0  0  0  0  0  0  0
   10.7171   -2.8875    0.0000 C   0  0  0  0  0  0  0  0  0  0  0  0
   10.7171   -3.7125    0.0000 C   0  0  0  0  0  0  0  0  0  0  0  0
   11.4315   -4.1250    0.0000 Br  0  0  0  0  0  0  0  0  0  0  0  0
   10.0026   -4.1250    0.0000 C   0  0  0  0  0  0  0  0  0  0  0  0
    9.2881   -3.7125    0.0000 C   0  0  0  0  0  0  0  0  0  0  0  0
    6.4302   -2.8875    0.0000 C   0  0  0  0  0  0  0  0  0  0  0  0
    5.7158   -2.4750    0.0000 C   0  0  0  0  0  0  0  0  0  0  0  0
    2.8579   -1.6500    0.0000 C   0  0  0  0  0  0  0  0  0  0  0  0
    2.1434   -1.2375    0.0000 C   0  0  0  0  0  0  0  0  0  0  0  0
    1.4289   -1.6500    0.0000 C   0  0  0  0  0  0  0  0  0  0  0  0
    0.7145   -1.2375    0.0000 C   0  0  0  0  0  0  0  0  0  0  0  0
    0.0000   -1.6500    0.0000 O   0  0  0  0  0  0  0  0  0  0  0  0
   -0.7145   -1.2375    0.0000 C   0  0  0  0  0  0  0  0  0  0  0  0
  1  2  1  0  0  0  0
  2  3  1  0  0  0  0
  3  4  2  0  0  0  0
  3 30  1  0  0  0  0
  4  5  1  0  0  0  0
  5  6  1  0  0  0  0
  5 28  2  0  0  0  0
  6  7  1  0  0  0  0
  7  8  1  0  0  0  0
  8  9  1  0  0  0  0
  8 27  1  0  0  0  0
  9 10  1  0  0  0  0
 10 11  1  0  0  0  0
 11 12  2  0  0  0  0
 11 26  1  0  0  0  0
 12 13  1  0  0  0  0
 13 14  2  0  0  0  0
 14 15  1  0  0  0  0
 14 25  1  0  0  0  0
 15 16  1  0  0  0  0
 16 17  2  0  0  0  0
 16 18  1  0  0  0  0
 18 19  2  0  0  0  0
 18 24  1  0  0  0  0
 19 20  1  0  0  0  0
 20 21  2  0  0  0  0
 21 22  1  0  0  0  0
 21 23  1  0  0  0  0
 23 24  2  0  0  0  0
 25 26  2  0  0  0  0
 27 28  1  0  0  0  0
 28 29  1  0  0  0  0
 29 30  2  0  0  0  0
 30 31  1  0  0  0  0
 31 32  1  0  0  0  0
M  END
$$$$

 OpenBabel12191814062D

 32 35  0  0  0  0  0  0  0  0999 V2000
   -0.7145   -0.4125    0.0000 C   0  0  0  0  0  0  0  0  0  0  0  0
    0.0000    0.0000    0.0000 O   0  0  0  0  0  0  0  0  0  0  0  0
    0.7145   -0.4125    0.0000 C   0  0  0  0  0  0  0  0  0  0  0  0
    1.4289    0.0000    0.0000 C   0  0  0  0  0  0  0  0  0  0  0  0
    2.1434   -0.4125    0.0000 C   0  0  0  0  0  0  0  0  0  0  0  0
    2.8579    0.0000    0.0000 C   0  0  0  0  0  0  0  0  0  0  0  0
    3.5724   -0.4125    0.0000 C   0  0  0  0  0  0  0  0  0  0  0  0
    3.5724   -1.2375    0.0000 N   0  0  0  0  0  0  0  0  0  0  0  0
    4.2868   -1.6500    0.0000 C   0  0  0  0  0  0  0  0  0  0  0  0
    5.0013   -1.2375    0.0000 C   0  0  0  0  0  0  0  0  0  0  0  0
    5.7158   -1.6500    0.0000 C   0  0  0  0  0  0  0  0  0  0  0  0
    6.4302   -1.2375    0.0000 C   0  0  0  0  0  0  0  0  0  0  0  0
    7.1447   -1.6500    0.0000 C   0  0  0  0  0  0  0  0  0  0  0  0
    7.1447   -2.4750    0.0000 C   0  0  0  0  0  0  0  0  0  0  0  0
    7.8592   -2.8875    0.0000 N   0  0  0  0  0  0  0  0  0  0  0  0
    8.5737   -2.4750    0.0000 C   0  0  0  0  0  0  0  0  0  0  0  0
    8.5737   -1.6500    0.0000 O   0  0  0  0  0  0  0  0  0  0  0  0
    9.2881   -2.8875    0.0000 C   0  0  0  0  0  0  0  0  0  0  0  0
   10.0026   -2.4750    0.0000 C   0  0  0  0  0  0  0  0  0  0  0  0
   10.7171   -2.8875    0.0000 C   0  0  0  0  0  0  0  0  0  0  0  0
   10.7171   -3.7125    0.0000 C   0  0  0  0  0  0  0  0  0  0  0  0
   11.4315   -4.1250    0.0000 N   0  0  0  0  0  0  0  0  0  0  0  0
   10.0026   -4.1250    0.0000 C   0  0  0  0  0  0  0  0  0  0  0  0
    9.2881   -3.7125    0.0000 C   0  0  0  0  0  0  0  0  0  0  0  0
    6.4302   -2.8875    0.0000 C   0  0  0  0  0  0  0  0  0  0  0  0
    5.7158   -2.4750    0.0000 C   0  0  0  0  0  0  0  0  0  0  0  0
    2.8579   -1.6500    0.0000 C   0  0  0  0  0  0  0  0  0  0  0  0
    2.1434   -1.2375    0.0000 C   0  0  0  0  0  0  0  0  0  0  0  0
    1.4289   -1.6500    0.0000 C   0  0  0  0  0  0  0  0  0  0  0  0
    0.7145   -1.2375    0.0000 C   0  0  0  0  0  0  0  0  0  0  0  0
    0.0000   -1.6500    0.0000 O   0  0  0  0  0  0  0  0  0  0  0  0
   -0.7145   -1.2375    0.0000 C   0  0  0  0  0  0  0  0  0  0  0  0
  1  2  1  0  0  0  0
  2  3  1  0  0  0  0
  3  4  2  0  0  0  0
  3 30  1  0  0  0  0
  4  5  1  0  0  0  0
  5  6  1  0  0  0  0
  5 28  2  0  0  0  0
  6  7  1  0  0  0  0
  7  8  1  0  0  0  0
  8  9  1  0  0  0  0
  8 27  1  0  0  0  0
  9 10  1  0  0  0  0
 10 11  1  0  0  0  0
 11 12  2  0  0  0  0
 11 26  1  0  0  0  0
 12 13  1  0  0  0  0
 13 14  2  0  0  0  0
 14 15  1  0  0  0  0
 14 25  1  0  0  0  0
 15 16  1  0  0  0  0
 16 17  2  0  0  0  0
 16 18  1  0  0  0  0
 18 19  2  0  0  0  0
 18 24  1  0  0  0  0
 19 20  1  0  0  0  0
 20 21  2  0  0  0  0
 21 22  1  0  0  0  0
 21 23  1  0  0  0  0
 23 24  2  0  0  0  0
 25 26  2  0  0  0  0
 27 28  1  0  0  0  0
 28 29  1  0  0  0  0
 29 30  2  0  0  0  0
 30 31  1  0  0  0  0
 31 32  1  0  0  0  0
M  END
$$$$

 OpenBabel12191814062D

 35 39  0  0  0  0  0  0  0  0999 V2000
    7.8592   -2.8875    0.0000 C   0  0  0  0  0  0  0  0  0  0  0  0
    8.5737   -2.4750    0.0000 O   0  0  0  0  0  0  0  0  0  0  0  0
    9.2881   -2.8875    0.0000 C   0  0  0  0  0  0  0  0  0  0  0  0
   10.0026   -2.4750    0.0000 C   0  0  0  0  0  0  0  0  0  0  0  0
   10.7171   -2.8875    0.0000 C   0  0  0  0  0  0  0  0  0  0  0  0
   11.4315   -2.4750    0.0000 C   0  0  0  0  0  0  0  0  0  0  0  0
   12.1460   -2.8875    0.0000 C   0  0  0  0  0  0  0  0  0  0  0  0
   12.1460   -3.7125    0.0000 N   0  0  0  0  0  0  0  0  0  0  0  0
   12.8605   -4.1250    0.0000 C   0  0  0  0  0  0  0  0  0  0  0  0
   13.5749   -3.7125    0.0000 C   0  0  0  0  0  0  0  0  0  0  0  0
   14.2894   -4.1250    0.0000 C   0  0  0  0  0  0  0  0  0  0  0  0
   15.0039   -3.7125    0.0000 C   0  0  0  0  0  0  0  0  0  0  0  0
   15.7184   -4.1250    0.0000 C   0  0  0  0  0  0  0  0  0  0  0  0
   15.7184   -4.9500    0.0000 C   0  0  0  0  0  0  0  0  0  0  0  0
   16.4328   -5.3625    0.0000 N   0  0  0  0  0  0  0  0  0  0  0  0
   17.1473   -4.9500    0.0000 C   0  0  0  0  0  0  0  0  0  0  0  0
   17.1473   -4.1250    0.0000 O   0  0  0  0  0  0  0  0  0  0  0  0
   17.8618   -5.3625    0.0000 C   0  0  0  0  0  0  0  0  0  0  0  0
   18.5762   -4.9500    0.0000 C   0  0  0  0  0  0  0  0  0  0  0  0
   19.2907   -5.3625    0.0000 C   0  0  0  0  0  0  0  0  0  0  0  0
   19.2907   -6.1875    0.0000 C   0  0  0  0  0  0  0  0  0  0  0  0
   20.0052   -6.6000    0.0000 C   0  0  0  0  0  0  0  0  0  0  0  0
   20.0052   -7.4250    0.0000 C   0  0  0  0  0  0  0  0  0  0  0  0
   19.2907   -7.8375    0.0000 C   0  0  0  0  0  0  0  0  0  0  0  0
   18.5762   -7.4250    0.0000 C   0  0  0  0  0  0  0  0  0  0  0  0
   18.5762   -6.6000    0.0000 C   0  0  0  0  0  0  0  0  0  0  0  0
   17.8618   -6.1875    0.0000 C   0  0  0  0  0  0  0  0  0  0  0  0
   15.0039   -5.3625    0.0000 C   0  0  0  0  0  0  0  0  0  0  0  0
   14.2894   -4.9500    0.0000 C   0  0  0  0  0  0  0  0  0  0  0  0
   11.4315   -4.1250    0.0000 C   0  0  0  0  0  0  0  0  0  0  0  0
   10.7171   -3.7125    0.0000 C   0  0  0  0  0  0  0  0  0  0  0  0
   10.0026   -4.1250    0.0000 C   0  0  0  0  0  0  0  0  0  0  0  0
    9.2881   -3.7125    0.0000 C   0  0  0  0  0  0  0  0  0  0  0  0
    8.5737   -4.1250    0.0000 O   0  0  0  0  0  0  0  0  0  0  0  0
    7.8592   -3.7125    0.0000 C   0  0  0  0  0  0  0  0  0  0  0  0
  1  2  1  0  0  0  0
  2  3  1  0  0  0  0
  3  4  2  0  0  0  0
  3 33  1  0  0  0  0
  4  5  1  0  0  0  0
  5  6  1  0  0  0  0
  5 31  2  0  0  0  0
  6  7  1  0  0  0  0
  7  8  1  0  0  0  0
  8  9  1  0  0  0  0
  8 30  1  0  0  0  0
  9 10  1  0  0  0  0
 10 11  1  0  0  0  0
 11 12  2  0  0  0  0
 11 29  1  0  0  0  0
 12 13  1  0  0  0  0
 13 14  2  0  0  0  0
 14 15  1  0  0  0  0
 14 28  1  0  0  0  0
 15 16  1  0  0  0  0
 16 17  2  0  0  0  0
 16 18  1  0  0  0  0
 18 19  2  0  0  0  0
 18 27  1  0  0  0  0
 19 20  1  0  0  0  0
 20 21  2  0  0  0  0
 21 22  1  0  0  0  0
 21 26  1  0  0  0  0
 22 23  2  0  0  0  0
 23 24  1  0  0  0  0
 24 25  2  0  0  0  0
 25 26  1  0  0  0  0
 26 27  2  0  0  0  0
 28 29  2  0  0  0  0
 30 31  1  0  0  0  0
 31 32  1  0  0  0  0
 32 33  2  0  0  0  0
 33 34  1  0  0  0  0
 34 35  1  0  0  0  0
M  END
$$$$

 OpenBabel12191814062D

 35 39  0  0  0  0  0  0  0  0999 V2000
    7.8592   -2.8875    0.0000 C   0  0  0  0  0  0  0  0  0  0  0  0
    8.5737   -2.4750    0.0000 O   0  0  0  0  0  0  0  0  0  0  0  0
    9.2881   -2.8875    0.0000 C   0  0  0  0  0  0  0  0  0  0  0  0
   10.0026   -2.4750    0.0000 C   0  0  0  0  0  0  0  0  0  0  0  0
   10.7171   -2.8875    0.0000 C   0  0  0  0  0  0  0  0  0  0  0  0
   11.4315   -2.4750    0.0000 C   0  0  0  0  0  0  0  0  0  0  0  0
   12.1460   -2.8875    0.0000 C   0  0  0  0  0  0  0  0  0  0  0  0
   12.1460   -3.7125    0.0000 N   0  0  0  0  0  0  0  0  0  0  0  0
   12.8605   -4.1250    0.0000 C   0  0  0  0  0  0  0  0  0  0  0  0
   13.5749   -3.7125    0.0000 C   0  0  0  0  0  0  0  0  0  0  0  0
   14.2894   -4.1250    0.0000 C   0  0  0  0  0  0  0  0  0  0  0  0
   15.0039   -3.7125    0.0000 C   0  0  0  0  0  0  0  0  0  0  0  0
   15.7184   -4.1250    0.0000 C   0  0  0  0  0  0  0  0  0  0  0  0
   15.7184   -4.9500    0.0000 C   0  0  0  0  0  0  0  0  0  0  0  0
   16.4328   -5.3625    0.0000 N   0  0  0  0  0  0  0  0  0  0  0  0
   17.1473   -4.9500    0.0000 C   0  0  0  0  0  0  0  0  0  0  0  0
   17.1473   -4.1250    0.0000 O   0  0  0  0  0  0  0  0  0  0  0  0
   17.8618   -5.3625    0.0000 C   0  0  0  0  0  0  0  0  0  0  0  0
   18.5762   -4.9500    0.0000 C   0  0  0  0  0  0  0  0  0  0  0  0
   19.2907   -5.3625    0.0000 C   0  0  0  0  0  0  0  0  0  0  0  0
   19.2907   -6.1875    0.0000 C   0  0  0  0  0  0  0  0  0  0  0  0
   20.0052   -6.6000    0.0000 N   0  0  0  0  0  0  0  0  0  0  0  0
   20.0052   -7.4250    0.0000 C   0  0  0  0  0  0  0  0  0  0  0  0
   19.2907   -7.8375    0.0000 C   0  0  0  0  0  0  0  0  0  0  0  0
   18.5762   -7.4250    0.0000 C   0  0  0  0  0  0  0  0  0  0  0  0
   18.5762   -6.6000    0.0000 C   0  0  0  0  0  0  0  0  0  0  0  0
   17.8618   -6.1875    0.0000 C   0  0  0  0  0  0  0  0  0  0  0  0
   15.0039   -5.3625    0.0000 C   0  0  0  0  0  0  0  0  0  0  0  0
   14.2894   -4.9500    0.0000 C   0  0  0  0  0  0  0  0  0  0  0  0
   11.4315   -4.1250    0.0000 C   0  0  0  0  0  0  0  0  0  0  0  0
   10.7171   -3.7125    0.0000 C   0  0  0  0  0  0  0  0  0  0  0  0
   10.0026   -4.1250    0.0000 C   0  0  0  0  0  0  0  0  0  0  0  0
    9.2881   -3.7125    0.0000 C   0  0  0  0  0  0  0  0  0  0  0  0
    8.5737   -4.1250    0.0000 O   0  0  0  0  0  0  0  0  0  0  0  0
    7.8592   -3.7125    0.0000 C   0  0  0  0  0  0  0  0  0  0  0  0
  1  2  1  0  0  0  0
  2  3  1  0  0  0  0
  3  4  2  0  0  0  0
  3 33  1  0  0  0  0
  4  5  1  0  0  0  0
  5  6  1  0  0  0  0
  5 31  2  0  0  0  0
  6  7  1  0  0  0  0
  7  8  1  0  0  0  0
  8  9  1  0  0  0  0
  8 30  1  0  0  0  0
  9 10  1  0  0  0  0
 10 11  1  0  0  0  0
 11 12  2  0  0  0  0
 11 29  1  0  0  0  0
 12 13  1  0  0  0  0
 13 14  2  0  0  0  0
 14 15  1  0  0  0  0
 14 28  1  0  0  0  0
 15 16  1  0  0  0  0
 16 17  2  0  0  0  0
 16 18  1  0  0  0  0
 18 19  2  0  0  0  0
 18 27  1  0  0  0  0
 19 20  1  0  0  0  0
 20 21  2  0  0  0  0
 21 22  1  0  0  0  0
 21 26  1  0  0  0  0
 22 23  2  0  0  0  0
 23 24  1  0  0  0  0
 24 25  2  0  0  0  0
 25 26  1  0  0  0  0
 26 27  2  0  0  0  0
 28 29  2  0  0  0  0
 30 31  1  0  0  0  0
 31 32  1  0  0  0  0
 32 33  2  0  0  0  0
 33 34  1  0  0  0  0
 34 35  1  0  0  0  0
M  END
$$$$

 OpenBabel12191814062D

 48 53  0  0  0  0  0  0  0  0999 V2000
   -0.7145   -0.4125    0.0000 C   0  0  0  0  0  0  0  0  0  0  0  0
    0.0000    0.0000    0.0000 O   0  0  0  0  0  0  0  0  0  0  0  0
    0.7145   -0.4125    0.0000 C   0  0  0  0  0  0  0  0  0  0  0  0
    1.4289    0.0000    0.0000 C   0  0  0  0  0  0  0  0  0  0  0  0
    2.1434   -0.4125    0.0000 C   0  0  0  0  0  0  0  0  0  0  0  0
    2.8579    0.0000    0.0000 C   0  0  0  0  0  0  0  0  0  0  0  0
    3.5724   -0.4125    0.0000 C   0  0  0  0  0  0  0  0  0  0  0  0
    3.5724   -1.2375    0.0000 N   0  0  0  0  0  0  0  0  0  0  0  0
    4.2868   -1.6500    0.0000 C   0  0  0  0  0  0  0  0  0  0  0  0
    5.0013   -1.2375    0.0000 C   0  0  0  0  0  0  0  0  0  0  0  0
    5.7158   -1.6500    0.0000 C   0  0  0  0  0  0  0  0  0  0  0  0
    6.4302   -1.2375    0.0000 C   0  0  0  0  0  0  0  0  0  0  0  0
    7.1447   -1.6500    0.0000 C   0  0  0  0  0  0  0  0  0  0  0  0
    7.1447   -2.4750    0.0000 C   0  0  0  0  0  0  0  0  0  0  0  0
    7.8592   -2.8875    0.0000 N   0  0  0  0  0  0  0  0  0  0  0  0
    7.8592   -3.7125    0.0000 C   0  0  0  0  0  0  0  0  0  0  0  0
    7.1447   -4.1250    0.0000 O   0  0  0  0  0  0  0  0  0  0  0  0
    8.5737   -4.1250    0.0000 C   0  0  0  0  0  0  0  0  0  0  0  0
    9.2881   -3.7125    0.0000 C   0  0  0  0  0  0  0  0  0  0  0  0
   10.0026   -4.1250    0.0000 C   0  0  0  0  0  0  0  0  0  0  0  0
   10.0026   -4.9500    0.0000 C   0  0  0  0  0  0  0  0  0  0  0  0
    9.2881   -5.3625    0.0000 C   0  0  0  0  0  0  0  0  0  0  0  0
    9.2881   -6.1875    0.0000 C   0  0  0  0  0  0  0  0  0  0  0  0
   10.0026   -6.6000    0.0000 C   0  0  0  0  0  0  0  0  0  0  0  0
   10.7171   -6.1875    0.0000 N   0  0  0  0  0  0  0  0  0  0  0  0
   11.4315   -6.6000    0.0000 C   0  0  0  0  0  0  0  0  0  0  0  0
   12.1460   -6.1875    0.0000 O   0  0  0  0  0  0  0  0  0  0  0  0
   11.4315   -7.4250    0.0000 C   0  0  0  0  0  0  0  0  0  0  0  0
   12.1460   -7.8375    0.0000 C   0  0  0  0  0  0  0  0  0  0  0  0
   12.1460   -8.6625    0.0000 C   0  0  0  0  0  0  0  0  0  0  0  0
   12.8605   -9.0750    0.0000 C   0  0  0  0  0  0  0  0  0  0  0  0
   12.8605   -9.9000    0.0000 C   0  0  0  0  0  0  0  0  0  0  0  0
   12.1460  -10.3125    0.0000 C   0  0  0  0  0  0  0  0  0  0  0  0
   11.4315   -9.9000    0.0000 C   0  0  0  0  0  0  0  0  0  0  0  0
   11.4315   -9.0750    0.0000 C   0  0  0  0  0  0  0  0  0  0  0  0
   10.7171   -7.8375    0.0000 N   0  0  0  0  0  0  0  0  0  0  0  0
   10.7171   -8.6625    0.0000 C   0  0  0  0  0  0  0  0  0  0  0  0
   10.0026   -7.4250    0.0000 C   0  0  0  0  0  0  0  0  0  0  0  0
    9.2881   -7.8375    0.0000 O   0  0  0  0  0  0  0  0  0  0  0  0
    8.5737   -4.9500    0.0000 C   0  0  0  0  0  0  0  0  0  0  0  0
    6.4302   -2.8875    0.0000 C   0  0  0  0  0  0  0  0  0  0  0  0
    5.7158   -2.4750    0.0000 C   0  0  0  0  0  0  0  0  0  0  0  0
    2.8579   -1.6500    0.0000 C   0  0  0  0  0  0  0  0  0  0  0  0
    2.1434   -1.2375    0.0000 C   0  0  0  0  0  0  0  0  0  0  0  0
    1.4289   -1.6500    0.0000 C   0  0  0  0  0  0  0  0  0  0  0  0
    0.7145   -1.2375    0.0000 C   0  0  0  0  0  0  0  0  0  0  0  0
    0.0000   -1.6500    0.0000 O   0  0  0  0  0  0  0  0  0  0  0  0
   -0.7145   -1.2375    0.0000 C   0  0  0  0  0  0  0  0  0  0  0  0
  1  2  1  0  0  0  0
  2  3  1  0  0  0  0
  3  4  2  0  0  0  0
  3 46  1  0  0  0  0
  4  5  1  0  0  0  0
  5  6  1  0  0  0  0
  5 44  2  0  0  0  0
  6  7  1  0  0  0  0
  7  8  1  0  0  0  0
  8  9  1  0  0  0  0
  8 43  1  0  0  0  0
  9 10  1  0  0  0  0
 10 11  1  0  0  0  0
 11 12  2  0  0  0  0
 11 42  1  0  0  0  0
 12 13  1  0  0  0  0
 13 14  2  0  0  0  0
 14 15  1  0  0  0  0
 14 41  1  0  0  0  0
 15 16  1  0  0  0  0
 16 17  2  0  0  0  0
 16 18  1  0  0  0  0
 18 19  2  0  0  0  0
 18 40  1  0  0  0  0
 19 20  1  0  0  0  0
 20 21  2  0  0  0  0
 21 22  1  0  0  0  0
 22 23  1  0  0  0  0
 22 40  2  0  0  0  0
 23 24  2  0  0  0  0
 24 25  1  0  0  0  0
 24 38  1  0  0  0  0
 25 26  1  0  0  0  0
 26 27  2  0  0  0  0
 26 28  1  0  0  0  0
 28 29  2  0  0  0  0
 28 36  1  0  0  0  0
 29 30  1  0  0  0  0
 30 31  2  0  0  0  0
 30 35  1  0  0  0  0
 31 32  1  0  0  0  0
 32 33  2  0  0  0  0
 33 34  1  0  0  0  0
 34 35  2  0  0  0  0
 36 37  1  0  0  0  0
 36 38  1  0  0  0  0
 38 39  2  0  0  0  0
 41 42  2  0  0  0  0
 43 44  1  0  0  0  0
 44 45  1  0  0  0  0
 45 46  2  0  0  0  0
 46 47  1  0  0  0  0
 47 48  1  0  0  0  0
M  END
$$$$

 OpenBabel12191814062D

 32 35  0  0  0  0  0  0  0  0999 V2000
   -0.7145   -0.4125    0.0000 C   0  0  0  0  0  0  0  0  0  0  0  0
    0.0000    0.0000    0.0000 O   0  0  0  0  0  0  0  0  0  0  0  0
    0.7145   -0.4125    0.0000 C   0  0  0  0  0  0  0  0  0  0  0  0
    1.4289    0.0000    0.0000 C   0  0  0  0  0  0  0  0  0  0  0  0
    2.1434   -0.4125    0.0000 C   0  0  0  0  0  0  0  0  0  0  0  0
    2.8579    0.0000    0.0000 C   0  0  0  0  0  0  0  0  0  0  0  0
    3.5724   -0.4125    0.0000 C   0  0  0  0  0  0  0  0  0  0  0  0
    3.5724   -1.2375    0.0000 N   0  0  0  0  0  0  0  0  0  0  0  0
    4.2868   -1.6500    0.0000 C   0  0  0  0  0  0  0  0  0  0  0  0
    5.0013   -1.2375    0.0000 C   0  0  0  0  0  0  0  0  0  0  0  0
    5.7158   -1.6500    0.0000 C   0  0  0  0  0  0  0  0  0  0  0  0
    6.4302   -1.2375    0.0000 C   0  0  0  0  0  0  0  0  0  0  0  0
    7.1447   -1.6500    0.0000 C   0  0  0  0  0  0  0  0  0  0  0  0
    7.1447   -2.4750    0.0000 C   0  0  0  0  0  0  0  0  0  0  0  0
    7.8592   -2.8875    0.0000 N   0  0  0  0  0  0  0  0  0  0  0  0
    8.5737   -2.4750    0.0000 C   0  0  0  0  0  0  0  0  0  0  0  0
    8.5737   -1.6500    0.0000 O   0  0  0  0  0  0  0  0  0  0  0  0
    9.2881   -2.8875    0.0000 C   0  0  0  0  0  0  0  0  0  0  0  0
   10.0026   -2.4750    0.0000 C   0  0  0  0  0  0  0  0  0  0  0  0
   10.7171   -2.8875    0.0000 C   0  0  0  0  0  0  0  0  0  0  0  0
   10.7171   -3.7125    0.0000 C   0  0  0  0  0  0  0  0  0  0  0  0
   10.0026   -4.1250    0.0000 C   0  0  0  0  0  0  0  0  0  0  0  0
   10.0026   -4.9500    0.0000 Br  0  0  0  0  0  0  0  0  0  0  0  0
    9.2881   -3.7125    0.0000 C   0  0  0  0  0  0  0  0  0  0  0  0
    6.4302   -2.8875    0.0000 C   0  0  0  0  0  0  0  0  0  0  0  0
    5.7158   -2.4750    0.0000 C   0  0  0  0  0  0  0  0  0  0  0  0
    2.8579   -1.6500    0.0000 C   0  0  0  0  0  0  0  0  0  0  0  0
    2.1434   -1.2375    0.0000 C   0  0  0  0  0  0  0  0  0  0  0  0
    1.4289   -1.6500    0.0000 C   0  0  0  0  0  0  0  0  0  0  0  0
    0.7145   -1.2375    0.0000 C   0  0  0  0  0  0  0  0  0  0  0  0
    0.0000   -1.6500    0.0000 O   0  0  0  0  0  0  0  0  0  0  0  0
   -0.7145   -1.2375    0.0000 C   0  0  0  0  0  0  0  0  0  0  0  0
  1  2  1  0  0  0  0
  2  3  1  0  0  0  0
  3  4  2  0  0  0  0
  3 30  1  0  0  0  0
  4  5  1  0  0  0  0
  5  6  1  0  0  0  0
  5 28  2  0  0  0  0
  6  7  1  0  0  0  0
  7  8  1  0  0  0  0
  8  9  1  0  0  0  0
  8 27  1  0  0  0  0
  9 10  1  0  0  0  0
 10 11  1  0  0  0  0
 11 12  2  0  0  0  0
 11 26  1  0  0  0  0
 12 13  1  0  0  0  0
 13 14  2  0  0  0  0
 14 15  1  0  0  0  0
 14 25  1  0  0  0  0
 15 16  1  0  0  0  0
 16 17  2  0  0  0  0
 16 18  1  0  0  0  0
 18 19  2  0  0  0  0
 18 24  1  0  0  0  0
 19 20  1  0  0  0  0
 20 21  2  0  0  0  0
 21 22  1  0  0  0  0
 22 23  1  0  0  0  0
 22 24  2  0  0  0  0
 25 26  2  0  0  0  0
 27 28  1  0  0  0  0
 28 29  1  0  0  0  0
 29 30  2  0  0  0  0
 30 31  1  0  0  0  0
 31 32  1  0  0  0  0
M  END
$$$$

 OpenBabel12191814062D

 41 46  0  0  0  0  0  0  0  0999 V2000
    3.5724   -7.8375    0.0000 C   0  0  0  0  0  0  0  0  0  0  0  0
    4.2868   -7.4250    0.0000 O   0  0  0  0  0  0  0  0  0  0  0  0
    5.0013   -7.8375    0.0000 C   0  0  0  0  0  0  0  0  0  0  0  0
    5.7158   -7.4250    0.0000 C   0  0  0  0  0  0  0  0  0  0  0  0
    6.4302   -7.8375    0.0000 C   0  0  0  0  0  0  0  0  0  0  0  0
    7.1447   -7.4250    0.0000 C   0  0  0  0  0  0  0  0  0  0  0  0
    7.8592   -7.8375    0.0000 C   0  0  0  0  0  0  0  0  0  0  0  0
    7.8592   -8.6625    0.0000 N   0  0  0  0  0  0  0  0  0  0  0  0
    8.5737   -9.0750    0.0000 C   0  0  0  0  0  0  0  0  0  0  0  0
    9.2881   -8.6625    0.0000 C   0  0  0  0  0  0  0  0  0  0  0  0
   10.0026   -9.0750    0.0000 C   0  0  0  0  0  0  0  0  0  0  0  0
   10.7171   -8.6625    0.0000 C   0  0  0  0  0  0  0  0  0  0  0  0
   11.4315   -9.0750    0.0000 C   0  0  0  0  0  0  0  0  0  0  0  0
   11.4315   -9.9000    0.0000 C   0  0  0  0  0  0  0  0  0  0  0  0
   12.1460  -10.3125    0.0000 N   0  0  0  0  0  0  0  0  0  0  0  0
   12.8605   -9.9000    0.0000 C   0  0  0  0  0  0  0  0  0  0  0  0
   13.5749  -10.3125    0.0000 O   0  0  0  0  0  0  0  0  0  0  0  0
   12.8605   -9.0750    0.0000 C   0  0  0  0  0  0  0  0  0  0  0  0
   12.1460   -8.6625    0.0000 C   0  0  0  0  0  0  0  0  0  0  0  0
   12.1460   -7.8375    0.0000 C   0  0  0  0  0  0  0  0  0  0  0  0
   12.8605   -7.4250    0.0000 C   0  0  0  0  0  0  0  0  0  0  0  0
   13.5749   -7.8375    0.0000 C   0  0  0  0  0  0  0  0  0  0  0  0
   14.2894   -7.4250    0.0000 C   0  0  0  0  0  0  0  0  0  0  0  0
   14.2894   -6.6000    0.0000 O   0  0  0  0  0  0  0  0  0  0  0  0
   15.0039   -7.8375    0.0000 C   0  0  0  0  0  0  0  0  0  0  0  0
   15.7184   -7.4250    0.0000 C   0  0  0  0  0  0  0  0  0  0  0  0
   16.4328   -7.8375    0.0000 C   0  0  0  0  0  0  0  0  0  0  0  0
   16.4328   -8.6625    0.0000 C   0  0  0  0  0  0  0  0  0  0  0  0
   15.7184   -9.0750    0.0000 C   0  0  0  0  0  0  0  0  0  0  0  0
   15.7184   -9.9000    0.0000 F   0  0  0  0  0  0  0  0  0  0  0  0
   15.0039   -8.6625    0.0000 C   0  0  0  0  0  0  0  0  0  0  0  0
   14.2894   -9.0750    0.0000 N   0  0  0  0  0  0  0  0  0  0  0  0
   13.5749   -8.6625    0.0000 C   0  0  0  0  0  0  0  0  0  0  0  0
   10.7171  -10.3125    0.0000 C   0  0  0  0  0  0  0  0  0  0  0  0
   10.0026   -9.9000    0.0000 C   0  0  0  0  0  0  0  0  0  0  0  0
    7.1447   -9.0750    0.0000 C   0  0  0  0  0  0  0  0  0  0  0  0
    6.4302   -8.6625    0.0000 C   0  0  0  0  0  0  0  0  0  0  0  0
    5.7158   -9.0750    0.0000 C   0  0  0  0  0  0  0  0  0  0  0  0
    5.0013   -8.6625    0.0000 C   0  0  0  0  0  0  0  0  0  0  0  0
    4.2868   -9.0750    0.0000 O   0  0  0  0  0  0  0  0  0  0  0  0
    3.5724   -8.6625    0.0000 C   0  0  0  0  0  0  0  0  0  0  0  0
  1  2  1  0  0  0  0
  2  3  1  0  0  0  0
  3  4  2  0  0  0  0
  3 39  1  0  0  0  0
  4  5  1  0  0  0  0
  5  6  1  0  0  0  0
  5 37  2  0  0  0  0
  6  7  1  0  0  0  0
  7  8  1  0  0  0  0
  8  9  1  0  0  0  0
  8 36  1  0  0  0  0
  9 10  1  0  0  0  0
 10 11  1  0  0  0  0
 11 12  2  0  0  0  0
 11 35  1  0  0  0  0
 12 13  1  0  0  0  0
 13 14  2  0  0  0  0
 14 15  1  0  0  0  0
 14 34  1  0  0  0  0
 15 16  1  0  0  0  0
 16 17  2  0  0  0  0
 16 18  1  0  0  0  0
 18 19  2  0  0  0  0
 18 33  1  0  0  0  0
 19 20  1  0  0  0  0
 20 21  2  0  0  0  0
 21 22  1  0  0  0  0
 22 23  1  0  0  0  0
 22 33  2  0  0  0  0
 23 24  2  0  0  0  0
 23 25  1  0  0  0  0
 25 26  2  0  0  0  0
 25 31  1  0  0  0  0
 26 27  1  0  0  0  0
 27 28  2  0  0  0  0
 28 29  1  0  0  0  0
 29 30  1  0  0  0  0
 29 31  2  0  0  0  0
 31 32  1  0  0  0  0
 32 33  1  0  0  0  0
 34 35  2  0  0  0  0
 36 37  1  0  0  0  0
 37 38  1  0  0  0  0
 38 39  2  0  0  0  0
 39 40  1  0  0  0  0
 40 41  1  0  0  0  0
M  END
$$$$

 OpenBabel12191814062D

 42 47  0  0  0  0  0  0  0  0999 V2000
    3.5724   -7.8375    0.0000 C   0  0  0  0  0  0  0  0  0  0  0  0
    4.2868   -7.4250    0.0000 O   0  0  0  0  0  0  0  0  0  0  0  0
    5.0013   -7.8375    0.0000 C   0  0  0  0  0  0  0  0  0  0  0  0
    5.7158   -7.4250    0.0000 C   0  0  0  0  0  0  0  0  0  0  0  0
    6.4302   -7.8375    0.0000 C   0  0  0  0  0  0  0  0  0  0  0  0
    7.1447   -7.4250    0.0000 C   0  0  0  0  0  0  0  0  0  0  0  0
    7.8592   -7.8375    0.0000 C   0  0  0  0  0  0  0  0  0  0  0  0
    7.8592   -8.6625    0.0000 N   0  0  0  0  0  0  0  0  0  0  0  0
    8.5737   -9.0750    0.0000 C   0  0  0  0  0  0  0  0  0  0  0  0
    9.2881   -8.6625    0.0000 C   0  0  0  0  0  0  0  0  0  0  0  0
   10.0026   -9.0750    0.0000 C   0  0  0  0  0  0  0  0  0  0  0  0
   10.7171   -8.6625    0.0000 C   0  0  0  0  0  0  0  0  0  0  0  0
   11.4315   -9.0750    0.0000 C   0  0  0  0  0  0  0  0  0  0  0  0
   11.4315   -9.9000    0.0000 C   0  0  0  0  0  0  0  0  0  0  0  0
   12.1460  -10.3125    0.0000 N   0  0  0  0  0  0  0  0  0  0  0  0
   12.8605   -9.9000    0.0000 C   0  0  0  0  0  0  0  0  0  0  0  0
   13.5749  -10.3125    0.0000 O   0  0  0  0  0  0  0  0  0  0  0  0
   12.8605   -9.0750    0.0000 C   0  0  0  0  0  0  0  0  0  0  0  0
   12.1460   -8.6625    0.0000 C   0  0  0  0  0  0  0  0  0  0  0  0
   12.1460   -7.8375    0.0000 C   0  0  0  0  0  0  0  0  0  0  0  0
   12.8605   -7.4250    0.0000 C   0  0  0  0  0  0  0  0  0  0  0  0
   13.5749   -7.8375    0.0000 C   0  0  0  0  0  0  0  0  0  0  0  0
   14.2894   -7.4250    0.0000 C   0  0  0  0  0  0  0  0  0  0  0  0
   14.2894   -6.6000    0.0000 O   0  0  0  0  0  0  0  0  0  0  0  0
   15.0039   -7.8375    0.0000 C   0  0  0  0  0  0  0  0  0  0  0  0
   15.7184   -7.4250    0.0000 C   0  0  0  0  0  0  0  0  0  0  0  0
   16.4328   -7.8375    0.0000 C   0  0  0  0  0  0  0  0  0  0  0  0
   16.4328   -8.6625    0.0000 C   0  0  0  0  0  0  0  0  0  0  0  0
   15.7184   -9.0750    0.0000 C   0  0  0  0  0  0  0  0  0  0  0  0
   15.7184   -9.9000    0.0000 O   0  0  0  0  0  0  0  0  0  0  0  0
   15.0039  -10.3125    0.0000 C   0  0  0  0  0  0  0  0  0  0  0  0
   15.0039   -8.6625    0.0000 C   0  0  0  0  0  0  0  0  0  0  0  0
   14.2894   -9.0750    0.0000 N   0  0  0  0  0  0  0  0  0  0  0  0
   13.5749   -8.6625    0.0000 C   0  0  0  0  0  0  0  0  0  0  0  0
   10.7171  -10.3125    0.0000 C   0  0  0  0  0  0  0  0  0  0  0  0
   10.0026   -9.9000    0.0000 C   0  0  0  0  0  0  0  0  0  0  0  0
    7.1447   -9.0750    0.0000 C   0  0  0  0  0  0  0  0  0  0  0  0
    6.4302   -8.6625    0.0000 C   0  0  0  0  0  0  0  0  0  0  0  0
    5.7158   -9.0750    0.0000 C   0  0  0  0  0  0  0  0  0  0  0  0
    5.0013   -8.6625    0.0000 C   0  0  0  0  0  0  0  0  0  0  0  0
    4.2868   -9.0750    0.0000 O   0  0  0  0  0  0  0  0  0  0  0  0
    3.5724   -8.6625    0.0000 C   0  0  0  0  0  0  0  0  0  0  0  0
  1  2  1  0  0  0  0
  2  3  1  0  0  0  0
  3  4  2  0  0  0  0
  3 40  1  0  0  0  0
  4  5  1  0  0  0  0
  5  6  1  0  0  0  0
  5 38  2  0  0  0  0
  6  7  1  0  0  0  0
  7  8  1  0  0  0  0
  8  9  1  0  0  0  0
  8 37  1  0  0  0  0
  9 10  1  0  0  0  0
 10 11  1  0  0  0  0
 11 12  2  0  0  0  0
 11 36  1  0  0  0  0
 12 13  1  0  0  0  0
 13 14  2  0  0  0  0
 14 15  1  0  0  0  0
 14 35  1  0  0  0  0
 15 16  1  0  0  0  0
 16 17  2  0  0  0  0
 16 18  1  0  0  0  0
 18 19  2  0  0  0  0
 18 34  1  0  0  0  0
 19 20  1  0  0  0  0
 20 21  2  0  0  0  0
 21 22  1  0  0  0  0
 22 23  1  0  0  0  0
 22 34  2  0  0  0  0
 23 24  2  0  0  0  0
 23 25  1  0  0  0  0
 25 26  2  0  0  0  0
 25 32  1  0  0  0  0
 26 27  1  0  0  0  0
 27 28  2  0  0  0  0
 28 29  1  0  0  0  0
 29 30  1  0  0  0  0
 29 32  2  0  0  0  0
 30 31  1  0  0  0  0
 32 33  1  0  0  0  0
 33 34  1  0  0  0  0
 35 36  2  0  0  0  0
 37 38  1  0  0  0  0
 38 39  1  0  0  0  0
 39 40  2  0  0  0  0
 40 41  1  0  0  0  0
 41 42  1  0  0  0  0
M  END
$$$$

 OpenBabel12191814062D

 42 47  0  0  0  0  0  0  0  0999 V2000
   -6.4302   -7.8375    0.0000 C   0  0  0  0  0  0  0  0  0  0  0  0
   -5.7158   -7.4250    0.0000 O   0  0  0  0  0  0  0  0  0  0  0  0
   -5.0013   -7.8375    0.0000 C   0  0  0  0  0  0  0  0  0  0  0  0
   -4.2868   -7.4250    0.0000 C   0  0  0  0  0  0  0  0  0  0  0  0
   -3.5724   -7.8375    0.0000 C   0  0  0  0  0  0  0  0  0  0  0  0
   -2.8579   -7.4250    0.0000 C   0  0  0  0  0  0  0  0  0  0  0  0
   -2.1434   -7.8375    0.0000 C   0  0  0  0  0  0  0  0  0  0  0  0
   -2.1434   -8.6625    0.0000 N   0  0  0  0  0  0  0  0  0  0  0  0
   -1.4289   -9.0750    0.0000 C   0  0  0  0  0  0  0  0  0  0  0  0
   -0.7145   -8.6625    0.0000 C   0  0  0  0  0  0  0  0  0  0  0  0
    0.0000   -9.0750    0.0000 C   0  0  0  0  0  0  0  0  0  0  0  0
    0.7145   -8.6625    0.0000 C   0  0  0  0  0  0  0  0  0  0  0  0
    1.4289   -9.0750    0.0000 C   0  0  0  0  0  0  0  0  0  0  0  0
    1.4289   -9.9000    0.0000 C   0  0  0  0  0  0  0  0  0  0  0  0
    2.1434  -10.3125    0.0000 N   0  0  0  0  0  0  0  0  0  0  0  0
    2.8579   -9.9000    0.0000 C   0  0  0  0  0  0  0  0  0  0  0  0
    2.8579   -9.0750    0.0000 O   0  0  0  0  0  0  0  0  0  0  0  0
    3.5724  -10.3125    0.0000 C   0  0  0  0  0  0  0  0  0  0  0  0
    3.5724  -11.1375    0.0000 C   0  0  0  0  0  0  0  0  0  0  0  0
    4.2868  -11.5500    0.0000 C   0  0  0  0  0  0  0  0  0  0  0  0
    5.0013  -11.1375    0.0000 C   0  0  0  0  0  0  0  0  0  0  0  0
    5.0013  -10.3125    0.0000 C   0  0  0  0  0  0  0  0  0  0  0  0
    4.2868   -9.9000    0.0000 C   0  0  0  0  0  0  0  0  0  0  0  0
    4.2868   -9.0750    0.0000 N   0  0  0  0  0  0  0  0  0  0  0  0
    5.0013   -8.6625    0.0000 C   0  0  0  0  0  0  0  0  0  0  0  0
    5.0013   -7.8375    0.0000 C   0  0  0  0  0  0  0  0  0  0  0  0
    4.2868   -7.4250    0.0000 O   0  0  0  0  0  0  0  0  0  0  0  0
    4.2868   -6.6000    0.0000 C   0  0  0  0  0  0  0  0  0  0  0  0
    5.7158   -7.4250    0.0000 C   0  0  0  0  0  0  0  0  0  0  0  0
    6.4302   -7.8375    0.0000 C   0  0  0  0  0  0  0  0  0  0  0  0
    6.4302   -8.6625    0.0000 C   0  0  0  0  0  0  0  0  0  0  0  0
    5.7158   -9.0750    0.0000 C   0  0  0  0  0  0  0  0  0  0  0  0
    5.7158   -9.9000    0.0000 C   0  0  0  0  0  0  0  0  0  0  0  0
    6.4302  -10.3125    0.0000 O   0  0  0  0  0  0  0  0  0  0  0  0
    0.7145  -10.3125    0.0000 C   0  0  0  0  0  0  0  0  0  0  0  0
    0.0000   -9.9000    0.0000 C   0  0  0  0  0  0  0  0  0  0  0  0
   -2.8579   -9.0750    0.0000 C   0  0  0  0  0  0  0  0  0  0  0  0
   -3.5724   -8.6625    0.0000 C   0  0  0  0  0  0  0  0  0  0  0  0
   -4.2868   -9.0750    0.0000 C   0  0  0  0  0  0  0  0  0  0  0  0
   -5.0013   -8.6625    0.0000 C   0  0  0  0  0  0  0  0  0  0  0  0
   -5.7158   -9.0750    0.0000 O   0  0  0  0  0  0  0  0  0  0  0  0
   -6.4302   -8.6625    0.0000 C   0  0  0  0  0  0  0  0  0  0  0  0
  1  2  1  0  0  0  0
  2  3  1  0  0  0  0
  3  4  2  0  0  0  0
  3 40  1  0  0  0  0
  4  5  1  0  0  0  0
  5  6  1  0  0  0  0
  5 38  2  0  0  0  0
  6  7  1  0  0  0  0
  7  8  1  0  0  0  0
  8  9  1  0  0  0  0
  8 37  1  0  0  0  0
  9 10  1  0  0  0  0
 10 11  1  0  0  0  0
 11 12  2  0  0  0  0
 11 36  1  0  0  0  0
 12 13  1  0  0  0  0
 13 14  2  0  0  0  0
 14 15  1  0  0  0  0
 14 35  1  0  0  0  0
 15 16  1  0  0  0  0
 16 17  2  0  0  0  0
 16 18  1  0  0  0  0
 18 19  2  0  0  0  0
 18 23  1  0  0  0  0
 19 20  1  0  0  0  0
 20 21  2  0  0  0  0
 21 22  1  0  0  0  0
 22 23  2  0  0  0  0
 22 33  1  0  0  0  0
 23 24  1  0  0  0  0
 24 25  1  0  0  0  0
 25 26  2  0  0  0  0
 25 32  1  0  0  0  0
 26 27  1  0  0  0  0
 26 29  1  0  0  0  0
 27 28  1  0  0  0  0
 29 30  2  0  0  0  0
 30 31  1  0  0  0  0
 31 32  2  0  0  0  0
 32 33  1  0  0  0  0
 33 34  2  0  0  0  0
 35 36  2  0  0  0  0
 37 38  1  0  0  0  0
 38 39  1  0  0  0  0
 39 40  2  0  0  0  0
 40 41  1  0  0  0  0
 41 42  1  0  0  0  0
M  END
$$$$

 OpenBabel12191814062D

 35 39  0  0  0  0  0  0  0  0999 V2000
    2.8579   -6.6000    0.0000 C   0  0  0  0  0  0  0  0  0  0  0  0
    3.5724   -6.1875    0.0000 O   0  0  0  0  0  0  0  0  0  0  0  0
    4.2868   -6.6000    0.0000 C   0  0  0  0  0  0  0  0  0  0  0  0
    5.0013   -6.1875    0.0000 C   0  0  0  0  0  0  0  0  0  0  0  0
    5.7158   -6.6000    0.0000 C   0  0  0  0  0  0  0  0  0  0  0  0
    6.4302   -6.1875    0.0000 C   0  0  0  0  0  0  0  0  0  0  0  0
    7.1447   -6.6000    0.0000 C   0  0  0  0  0  0  0  0  0  0  0  0
    7.1447   -7.4250    0.0000 N   0  0  0  0  0  0  0  0  0  0  0  0
    7.8592   -7.8375    0.0000 C   0  0  0  0  0  0  0  0  0  0  0  0
    8.5737   -7.4250    0.0000 C   0  0  0  0  0  0  0  0  0  0  0  0
    9.2881   -7.8375    0.0000 C   0  0  0  0  0  0  0  0  0  0  0  0
   10.0026   -7.4250    0.0000 C   0  0  0  0  0  0  0  0  0  0  0  0
   10.7171   -7.8375    0.0000 C   0  0  0  0  0  0  0  0  0  0  0  0
   10.7171   -8.6625    0.0000 C   0  0  0  0  0  0  0  0  0  0  0  0
   11.4315   -9.0750    0.0000 N   0  0  0  0  0  0  0  0  0  0  0  0
   12.1460   -8.6625    0.0000 C   0  0  0  0  0  0  0  0  0  0  0  0
   12.8605   -9.0750    0.0000 O   0  0  0  0  0  0  0  0  0  0  0  0
   12.1460   -7.8375    0.0000 C   0  0  0  0  0  0  0  0  0  0  0  0
   11.4315   -7.4250    0.0000 C   0  0  0  0  0  0  0  0  0  0  0  0
   11.4315   -6.6000    0.0000 C   0  0  0  0  0  0  0  0  0  0  0  0
   12.1460   -6.1875    0.0000 C   0  0  0  0  0  0  0  0  0  0  0  0
   12.8605   -6.6000    0.0000 C   0  0  0  0  0  0  0  0  0  0  0  0
   13.5749   -6.1875    0.0000 C   0  0  0  0  0  0  0  0  0  0  0  0
   14.2894   -6.6000    0.0000 C   0  0  0  0  0  0  0  0  0  0  0  0
   14.2894   -7.4250    0.0000 C   0  0  0  0  0  0  0  0  0  0  0  0
   13.5749   -7.8375    0.0000 C   0  0  0  0  0  0  0  0  0  0  0  0
   12.8605   -7.4250    0.0000 C   0  0  0  0  0  0  0  0  0  0  0  0
   10.0026   -9.0750    0.0000 C   0  0  0  0  0  0  0  0  0  0  0  0
    9.2881   -8.6625    0.0000 C   0  0  0  0  0  0  0  0  0  0  0  0
    6.4302   -7.8375    0.0000 C   0  0  0  0  0  0  0  0  0  0  0  0
    5.7158   -7.4250    0.0000 C   0  0  0  0  0  0  0  0  0  0  0  0
    5.0013   -7.8375    0.0000 C   0  0  0  0  0  0  0  0  0  0  0  0
    4.2868   -7.4250    0.0000 C   0  0  0  0  0  0  0  0  0  0  0  0
    3.5724   -7.8375    0.0000 O   0  0  0  0  0  0  0  0  0  0  0  0
    2.8579   -7.4250    0.0000 C   0  0  0  0  0  0  0  0  0  0  0  0
  1  2  1  0  0  0  0
  2  3  1  0  0  0  0
  3  4  2  0  0  0  0
  3 33  1  0  0  0  0
  4  5  1  0  0  0  0
  5  6  1  0  0  0  0
  5 31  2  0  0  0  0
  6  7  1  0  0  0  0
  7  8  1  0  0  0  0
  8  9  1  0  0  0  0
  8 30  1  0  0  0  0
  9 10  1  0  0  0  0
 10 11  1  0  0  0  0
 11 12  2  0  0  0  0
 11 29  1  0  0  0  0
 12 13  1  0  0  0  0
 13 14  2  0  0  0  0
 14 15  1  0  0  0  0
 14 28  1  0  0  0  0
 15 16  1  0  0  0  0
 16 17  2  0  0  0  0
 16 18  1  0  0  0  0
 18 19  2  0  0  0  0
 18 27  1  0  0  0  0
 19 20  1  0  0  0  0
 20 21  2  0  0  0  0
 21 22  1  0  0  0  0
 22 23  2  0  0  0  0
 22 27  1  0  0  0  0
 23 24  1  0  0  0  0
 24 25  2  0  0  0  0
 25 26  1  0  0  0  0
 26 27  2  0  0  0  0
 28 29  2  0  0  0  0
 30 31  1  0  0  0  0
 31 32  1  0  0  0  0
 32 33  2  0  0  0  0
 33 34  1  0  0  0  0
 34 35  1  0  0  0  0
M  END
$$$$

 OpenBabel12191814062D

 32 35  0  0  0  0  0  0  0  0999 V2000
   -0.7145   -0.4125    0.0000 C   0  0  0  0  0  0  0  0  0  0  0  0
    0.0000    0.0000    0.0000 O   0  0  0  0  0  0  0  0  0  0  0  0
    0.7145   -0.4125    0.0000 C   0  0  0  0  0  0  0  0  0  0  0  0
    1.4289    0.0000    0.0000 C   0  0  0  0  0  0  0  0  0  0  0  0
    2.1434   -0.4125    0.0000 C   0  0  0  0  0  0  0  0  0  0  0  0
    2.8579    0.0000    0.0000 C   0  0  0  0  0  0  0  0  0  0  0  0
    3.5724   -0.4125    0.0000 C   0  0  0  0  0  0  0  0  0  0  0  0
    3.5724   -1.2375    0.0000 N   0  0  0  0  0  0  0  0  0  0  0  0
    4.2868   -1.6500    0.0000 C   0  0  0  0  0  0  0  0  0  0  0  0
    5.0013   -1.2375    0.0000 C   0  0  0  0  0  0  0  0  0  0  0  0
    5.7158   -1.6500    0.0000 C   0  0  0  0  0  0  0  0  0  0  0  0
    6.4302   -1.2375    0.0000 C   0  0  0  0  0  0  0  0  0  0  0  0
    7.1447   -1.6500    0.0000 C   0  0  0  0  0  0  0  0  0  0  0  0
    7.1447   -2.4750    0.0000 C   0  0  0  0  0  0  0  0  0  0  0  0
    7.8592   -2.8875    0.0000 N   0  0  0  0  0  0  0  0  0  0  0  0
    8.5737   -2.4750    0.0000 C   0  0  0  0  0  0  0  0  0  0  0  0
    8.5737   -1.6500    0.0000 O   0  0  0  0  0  0  0  0  0  0  0  0
    9.2881   -2.8875    0.0000 C   0  0  0  0  0  0  0  0  0  0  0  0
   10.0026   -2.4750    0.0000 C   0  0  0  0  0  0  0  0  0  0  0  0
   10.7171   -2.8875    0.0000 C   0  0  0  0  0  0  0  0  0  0  0  0
   10.7171   -3.7125    0.0000 C   0  0  0  0  0  0  0  0  0  0  0  0
   10.0026   -4.1250    0.0000 C   0  0  0  0  0  0  0  0  0  0  0  0
    9.2881   -3.7125    0.0000 C   0  0  0  0  0  0  0  0  0  0  0  0
    8.5737   -4.1250    0.0000 Br  0  0  0  0  0  0  0  0  0  0  0  0
    6.4302   -2.8875    0.0000 C   0  0  0  0  0  0  0  0  0  0  0  0
    5.7158   -2.4750    0.0000 C   0  0  0  0  0  0  0  0  0  0  0  0
    2.8579   -1.6500    0.0000 C   0  0  0  0  0  0  0  0  0  0  0  0
    2.1434   -1.2375    0.0000 C   0  0  0  0  0  0  0  0  0  0  0  0
    1.4289   -1.6500    0.0000 C   0  0  0  0  0  0  0  0  0  0  0  0
    0.7145   -1.2375    0.0000 C   0  0  0  0  0  0  0  0  0  0  0  0
    0.0000   -1.6500    0.0000 O   0  0  0  0  0  0  0  0  0  0  0  0
   -0.7145   -1.2375    0.0000 C   0  0  0  0  0  0  0  0  0  0  0  0
  1  2  1  0  0  0  0
  2  3  1  0  0  0  0
  3  4  2  0  0  0  0
  3 30  1  0  0  0  0
  4  5  1  0  0  0  0
  5  6  1  0  0  0  0
  5 28  2  0  0  0  0
  6  7  1  0  0  0  0
  7  8  1  0  0  0  0
  8  9  1  0  0  0  0
  8 27  1  0  0  0  0
  9 10  1  0  0  0  0
 10 11  1  0  0  0  0
 11 12  2  0  0  0  0
 11 26  1  0  0  0  0
 12 13  1  0  0  0  0
 13 14  2  0  0  0  0
 14 15  1  0  0  0  0
 14 25  1  0  0  0  0
 15 16  1  0  0  0  0
 16 17  2  0  0  0  0
 16 18  1  0  0  0  0
 18 19  2  0  0  0  0
 18 23  1  0  0  0  0
 19 20  1  0  0  0  0
 20 21  2  0  0  0  0
 21 22  1  0  0  0  0
 22 23  2  0  0  0  0
 23 24  1  0  0  0  0
 25 26  2  0  0  0  0
 27 28  1  0  0  0  0
 28 29  1  0  0  0  0
 29 30  2  0  0  0  0
 30 31  1  0  0  0  0
 31 32  1  0  0  0  0
M  END
$$$$

 OpenBabel12191814062D

 32 35  0  0  0  0  0  0  0  0999 V2000
   -0.7145   -0.4125    0.0000 C   0  0  0  0  0  0  0  0  0  0  0  0
    0.0000    0.0000    0.0000 O   0  0  0  0  0  0  0  0  0  0  0  0
    0.7145   -0.4125    0.0000 C   0  0  0  0  0  0  0  0  0  0  0  0
    1.4289    0.0000    0.0000 C   0  0  0  0  0  0  0  0  0  0  0  0
    2.1434   -0.4125    0.0000 C   0  0  0  0  0  0  0  0  0  0  0  0
    2.8579    0.0000    0.0000 C   0  0  0  0  0  0  0  0  0  0  0  0
    3.5724   -0.4125    0.0000 C   0  0  0  0  0  0  0  0  0  0  0  0
    3.5724   -1.2375    0.0000 N   0  0  0  0  0  0  0  0  0  0  0  0
    4.2868   -1.6500    0.0000 C   0  0  0  0  0  0  0  0  0  0  0  0
    5.0013   -1.2375    0.0000 C   0  0  0  0  0  0  0  0  0  0  0  0
    5.7158   -1.6500    0.0000 C   0  0  0  0  0  0  0  0  0  0  0  0
    6.4302   -1.2375    0.0000 C   0  0  0  0  0  0  0  0  0  0  0  0
    7.1447   -1.6500    0.0000 C   0  0  0  0  0  0  0  0  0  0  0  0
    7.1447   -2.4750    0.0000 C   0  0  0  0  0  0  0  0  0  0  0  0
    7.8592   -2.8875    0.0000 N   0  0  0  0  0  0  0  0  0  0  0  0
    8.5737   -2.4750    0.0000 C   0  0  0  0  0  0  0  0  0  0  0  0
    8.5737   -1.6500    0.0000 O   0  0  0  0  0  0  0  0  0  0  0  0
    9.2881   -2.8875    0.0000 C   0  0  0  0  0  0  0  0  0  0  0  0
   10.0026   -2.4750    0.0000 C   0  0  0  0  0  0  0  0  0  0  0  0
   10.7171   -2.8875    0.0000 C   0  0  0  0  0  0  0  0  0  0  0  0
   10.7171   -3.7125    0.0000 C   0  0  0  0  0  0  0  0  0  0  0  0
   10.0026   -4.1250    0.0000 C   0  0  0  0  0  0  0  0  0  0  0  0
    9.2881   -3.7125    0.0000 C   0  0  0  0  0  0  0  0  0  0  0  0
    8.5737   -4.1250    0.0000 N   0  0  0  0  0  0  0  0  0  0  0  0
    6.4302   -2.8875    0.0000 C   0  0  0  0  0  0  0  0  0  0  0  0
    5.7158   -2.4750    0.0000 C   0  0  0  0  0  0  0  0  0  0  0  0
    2.8579   -1.6500    0.0000 C   0  0  0  0  0  0  0  0  0  0  0  0
    2.1434   -1.2375    0.0000 C   0  0  0  0  0  0  0  0  0  0  0  0
    1.4289   -1.6500    0.0000 C   0  0  0  0  0  0  0  0  0  0  0  0
    0.7145   -1.2375    0.0000 C   0  0  0  0  0  0  0  0  0  0  0  0
    0.0000   -1.6500    0.0000 O   0  0  0  0  0  0  0  0  0  0  0  0
   -0.7145   -1.2375    0.0000 C   0  0  0  0  0  0  0  0  0  0  0  0
  1  2  1  0  0  0  0
  2  3  1  0  0  0  0
  3  4  2  0  0  0  0
  3 30  1  0  0  0  0
  4  5  1  0  0  0  0
  5  6  1  0  0  0  0
  5 28  2  0  0  0  0
  6  7  1  0  0  0  0
  7  8  1  0  0  0  0
  8  9  1  0  0  0  0
  8 27  1  0  0  0  0
  9 10  1  0  0  0  0
 10 11  1  0  0  0  0
 11 12  2  0  0  0  0
 11 26  1  0  0  0  0
 12 13  1  0  0  0  0
 13 14  2  0  0  0  0
 14 15  1  0  0  0  0
 14 25  1  0  0  0  0
 15 16  1  0  0  0  0
 16 17  2  0  0  0  0
 16 18  1  0  0  0  0
 18 19  2  0  0  0  0
 18 23  1  0  0  0  0
 19 20  1  0  0  0  0
 20 21  2  0  0  0  0
 21 22  1  0  0  0  0
 22 23  2  0  0  0  0
 23 24  1  0  0  0  0
 25 26  2  0  0  0  0
 27 28  1  0  0  0  0
 28 29  1  0  0  0  0
 29 30  2  0  0  0  0
 30 31  1  0  0  0  0
 31 32  1  0  0  0  0
M  END
$$$$

 OpenBabel12191814062D

 43 48  0  0  0  0  0  0  0  0999 V2000
   -0.7145   -0.4125    0.0000 C   0  0  0  0  0  0  0  0  0  0  0  0
    0.0000    0.0000    0.0000 O   0  0  0  0  0  0  0  0  0  0  0  0
    0.7145   -0.4125    0.0000 C   0  0  0  0  0  0  0  0  0  0  0  0
    1.4289    0.0000    0.0000 C   0  0  0  0  0  0  0  0  0  0  0  0
    2.1434   -0.4125    0.0000 C   0  0  0  0  0  0  0  0  0  0  0  0
    2.8579    0.0000    0.0000 C   0  0  0  0  0  0  0  0  0  0  0  0
    3.5724   -0.4125    0.0000 C   0  0  0  0  0  0  0  0  0  0  0  0
    3.5724   -1.2375    0.0000 N   0  0  0  0  0  0  0  0  0  0  0  0
    4.2868   -1.6500    0.0000 C   0  0  0  0  0  0  0  0  0  0  0  0
    5.0013   -1.2375    0.0000 C   0  0  0  0  0  0  0  0  0  0  0  0
    5.7158   -1.6500    0.0000 C   0  0  0  0  0  0  0  0  0  0  0  0
    6.4302   -1.2375    0.0000 C   0  0  0  0  0  0  0  0  0  0  0  0
    7.1447   -1.6500    0.0000 C   0  0  0  0  0  0  0  0  0  0  0  0
    7.1447   -2.4750    0.0000 C   0  0  0  0  0  0  0  0  0  0  0  0
    7.8592   -2.8875    0.0000 N   0  0  0  0  0  0  0  0  0  0  0  0
    7.8592   -3.7125    0.0000 C   0  0  0  0  0  0  0  0  0  0  0  0
    7.1447   -4.1250    0.0000 O   0  0  0  0  0  0  0  0  0  0  0  0
    8.5737   -4.1250    0.0000 C   0  0  0  0  0  0  0  0  0  0  0  0
    9.2881   -3.7125    0.0000 C   0  0  0  0  0  0  0  0  0  0  0  0
   10.0026   -4.1250    0.0000 C   0  0  0  0  0  0  0  0  0  0  0  0
   10.0026   -4.9500    0.0000 C   0  0  0  0  0  0  0  0  0  0  0  0
    9.2881   -5.3625    0.0000 C   0  0  0  0  0  0  0  0  0  0  0  0
    8.5737   -4.9500    0.0000 C   0  0  0  0  0  0  0  0  0  0  0  0
    7.8592   -5.3625    0.0000 N   0  0  0  0  0  0  0  0  0  0  0  0
    7.8592   -6.1875    0.0000 C   0  0  0  0  0  0  0  0  0  0  0  0
    7.1447   -6.6000    0.0000 O   0  0  0  0  0  0  0  0  0  0  0  0
    8.5737   -6.6000    0.0000 C   0  0  0  0  0  0  0  0  0  0  0  0
    9.3273   -6.2644    0.0000 C   0  0  0  0  0  0  0  0  0  0  0  0
    9.8794   -6.8775    0.0000 C   0  0  0  0  0  0  0  0  0  0  0  0
   10.7044   -6.8775    0.0000 C   0  0  0  0  0  0  0  0  0  0  0  0
   11.1169   -7.5920    0.0000 C   0  0  0  0  0  0  0  0  0  0  0  0
   10.7044   -8.3065    0.0000 C   0  0  0  0  0  0  0  0  0  0  0  0
    9.8794   -8.3065    0.0000 C   0  0  0  0  0  0  0  0  0  0  0  0
    9.4669   -7.5920    0.0000 C   0  0  0  0  0  0  0  0  0  0  0  0
    8.6599   -7.4205    0.0000 O   0  0  0  0  0  0  0  0  0  0  0  0
    6.4302   -2.8875    0.0000 C   0  0  0  0  0  0  0  0  0  0  0  0
    5.7158   -2.4750    0.0000 C   0  0  0  0  0  0  0  0  0  0  0  0
    2.8579   -1.6500    0.0000 C   0  0  0  0  0  0  0  0  0  0  0  0
    2.1434   -1.2375    0.0000 C   0  0  0  0  0  0  0  0  0  0  0  0
    1.4289   -1.6500    0.0000 C   0  0  0  0  0  0  0  0  0  0  0  0
    0.7145   -1.2375    0.0000 C   0  0  0  0  0  0  0  0  0  0  0  0
    0.0000   -1.6500    0.0000 O   0  0  0  0  0  0  0  0  0  0  0  0
   -0.7145   -1.2375    0.0000 C   0  0  0  0  0  0  0  0  0  0  0  0
  1  2  1  0  0  0  0
  2  3  1  0  0  0  0
  3  4  2  0  0  0  0
  3 41  1  0  0  0  0
  4  5  1  0  0  0  0
  5  6  1  0  0  0  0
  5 39  2  0  0  0  0
  6  7  1  0  0  0  0
  7  8  1  0  0  0  0
  8  9  1  0  0  0  0
  8 38  1  0  0  0  0
  9 10  1  0  0  0  0
 10 11  1  0  0  0  0
 11 12  2  0  0  0  0
 11 37  1  0  0  0  0
 12 13  1  0  0  0  0
 13 14  2  0  0  0  0
 14 15  1  0  0  0  0
 14 36  1  0  0  0  0
 15 16  1  0  0  0  0
 16 17  2  0  0  0  0
 16 18  1  0  0  0  0
 18 19  2  0  0  0  0
 18 23  1  0  0  0  0
 19 20  1  0  0  0  0
 20 21  2  0  0  0  0
 21 22  1  0  0  0  0
 22 23  2  0  0  0  0
 23 24  1  0  0  0  0
 24 25  1  0  0  0  0
 25 26  2  0  0  0  0
 25 27  1  0  0  0  0
 27 28  2  0  0  0  0
 27 35  1  0  0  0  0
 28 29  1  0  0  0  0
 29 30  2  0  0  0  0
 29 34  1  0  0  0  0
 30 31  1  0  0  0  0
 31 32  2  0  0  0  0
 32 33  1  0  0  0  0
 33 34  2  0  0  0  0
 34 35  1  0  0  0  0
 36 37  2  0  0  0  0
 38 39  1  0  0  0  0
 39 40  1  0  0  0  0
 40 41  2  0  0  0  0
 41 42  1  0  0  0  0
 42 43  1  0  0  0  0
M  END
$$$$

 OpenBabel12191814062D

 42 46  0  0  0  0  0  0  0  0999 V2000
   -0.7145   -0.4125    0.0000 C   0  0  0  0  0  0  0  0  0  0  0  0
    0.0000    0.0000    0.0000 O   0  0  0  0  0  0  0  0  0  0  0  0
    0.7145   -0.4125    0.0000 C   0  0  0  0  0  0  0  0  0  0  0  0
    1.4289    0.0000    0.0000 C   0  0  0  0  0  0  0  0  0  0  0  0
    2.1434   -0.4125    0.0000 C   0  0  0  0  0  0  0  0  0  0  0  0
    2.8579    0.0000    0.0000 C   0  0  0  0  0  0  0  0  0  0  0  0
    3.5724   -0.4125    0.0000 C   0  0  0  0  0  0  0  0  0  0  0  0
    3.5724   -1.2375    0.0000 N   0  0  0  0  0  0  0  0  0  0  0  0
    4.2868   -1.6500    0.0000 C   0  0  0  0  0  0  0  0  0  0  0  0
    5.0013   -1.2375    0.0000 C   0  0  0  0  0  0  0  0  0  0  0  0
    5.7158   -1.6500    0.0000 C   0  0  0  0  0  0  0  0  0  0  0  0
    6.4302   -1.2375    0.0000 C   0  0  0  0  0  0  0  0  0  0  0  0
    7.1447   -1.6500    0.0000 C   0  0  0  0  0  0  0  0  0  0  0  0
    7.1447   -2.4750    0.0000 C   0  0  0  0  0  0  0  0  0  0  0  0
    7.8592   -2.8875    0.0000 N   0  0  0  0  0  0  0  0  0  0  0  0
    7.8592   -3.7125    0.0000 C   0  0  0  0  0  0  0  0  0  0  0  0
    7.1447   -4.1250    0.0000 O   0  0  0  0  0  0  0  0  0  0  0  0
    8.5737   -4.1250    0.0000 C   0  0  0  0  0  0  0  0  0  0  0  0
    9.2881   -3.7125    0.0000 C   0  0  0  0  0  0  0  0  0  0  0  0
   10.0026   -4.1250    0.0000 C   0  0  0  0  0  0  0  0  0  0  0  0
   10.0026   -4.9500    0.0000 C   0  0  0  0  0  0  0  0  0  0  0  0
    9.2881   -5.3625    0.0000 C   0  0  0  0  0  0  0  0  0  0  0  0
    8.5737   -4.9500    0.0000 C   0  0  0  0  0  0  0  0  0  0  0  0
    7.8592   -5.3625    0.0000 N   0  0  0  0  0  0  0  0  0  0  0  0
    7.8592   -6.1875    0.0000 C   0  0  0  0  0  0  0  0  0  0  0  0
    7.1447   -6.6000    0.0000 O   0  0  0  0  0  0  0  0  0  0  0  0
    8.5737   -6.6000    0.0000 C   0  0  0  0  0  0  0  0  0  0  0  0
    9.2881   -6.1875    0.0000 C   0  0  0  0  0  0  0  0  0  0  0  0
   10.0026   -6.6000    0.0000 C   0  0  0  0  0  0  0  0  0  0  0  0
   10.0026   -7.4250    0.0000 C   0  0  0  0  0  0  0  0  0  0  0  0
   10.7171   -7.8375    0.0000 C   0  0  0  0  0  0  0  0  0  0  0  0
    9.2881   -7.8375    0.0000 C   0  0  0  0  0  0  0  0  0  0  0  0
    9.2881   -8.6625    0.0000 C   0  0  0  0  0  0  0  0  0  0  0  0
    8.5737   -7.4250    0.0000 C   0  0  0  0  0  0  0  0  0  0  0  0
    6.4302   -2.8875    0.0000 C   0  0  0  0  0  0  0  0  0  0  0  0
    5.7158   -2.4750    0.0000 C   0  0  0  0  0  0  0  0  0  0  0  0
    2.8579   -1.6500    0.0000 C   0  0  0  0  0  0  0  0  0  0  0  0
    2.1434   -1.2375    0.0000 C   0  0  0  0  0  0  0  0  0  0  0  0
    1.4289   -1.6500    0.0000 C   0  0  0  0  0  0  0  0  0  0  0  0
    0.7145   -1.2375    0.0000 C   0  0  0  0  0  0  0  0  0  0  0  0
    0.0000   -1.6500    0.0000 O   0  0  0  0  0  0  0  0  0  0  0  0
   -0.7145   -1.2375    0.0000 C   0  0  0  0  0  0  0  0  0  0  0  0
  1  2  1  0  0  0  0
  2  3  1  0  0  0  0
  3  4  2  0  0  0  0
  3 40  1  0  0  0  0
  4  5  1  0  0  0  0
  5  6  1  0  0  0  0
  5 38  2  0  0  0  0
  6  7  1  0  0  0  0
  7  8  1  0  0  0  0
  8  9  1  0  0  0  0
  8 37  1  0  0  0  0
  9 10  1  0  0  0  0
 10 11  1  0  0  0  0
 11 12  2  0  0  0  0
 11 36  1  0  0  0  0
 12 13  1  0  0  0  0
 13 14  2  0  0  0  0
 14 15  1  0  0  0  0
 14 35  1  0  0  0  0
 15 16  1  0  0  0  0
 16 17  2  0  0  0  0
 16 18  1  0  0  0  0
 18 19  2  0  0  0  0
 18 23  1  0  0  0  0
 19 20  1  0  0  0  0
 20 21  2  0  0  0  0
 21 22  1  0  0  0  0
 22 23  2  0  0  0  0
 23 24  1  0  0  0  0
 24 25  1  0  0  0  0
 25 26  2  0  0  0  0
 25 27  1  0  0  0  0
 27 28  2  0  0  0  0
 27 34  1  0  0  0  0
 28 29  1  0  0  0  0
 29 30  2  0  0  0  0
 30 31  1  0  0  0  0
 30 32  1  0  0  0  0
 32 33  1  0  0  0  0
 32 34  2  0  0  0  0
 35 36  2  0  0  0  0
 37 38  1  0  0  0  0
 38 39  1  0  0  0  0
 39 40  2  0  0  0  0
 40 41  1  0  0  0  0
 41 42  1  0  0  0  0
M  END
$$$$

 OpenBabel12191814062D

 41 45  0  0  0  0  0  0  0  0999 V2000
   -0.7145   -0.4125    0.0000 C   0  0  0  0  0  0  0  0  0  0  0  0
    0.0000    0.0000    0.0000 O   0  0  0  0  0  0  0  0  0  0  0  0
    0.7145   -0.4125    0.0000 C   0  0  0  0  0  0  0  0  0  0  0  0
    1.4289    0.0000    0.0000 C   0  0  0  0  0  0  0  0  0  0  0  0
    2.1434   -0.4125    0.0000 C   0  0  0  0  0  0  0  0  0  0  0  0
    2.8579    0.0000    0.0000 C   0  0  0  0  0  0  0  0  0  0  0  0
    3.5724   -0.4125    0.0000 C   0  0  0  0  0  0  0  0  0  0  0  0
    3.5724   -1.2375    0.0000 N   0  0  0  0  0  0  0  0  0  0  0  0
    4.2868   -1.6500    0.0000 C   0  0  0  0  0  0  0  0  0  0  0  0
    5.0013   -1.2375    0.0000 C   0  0  0  0  0  0  0  0  0  0  0  0
    5.7158   -1.6500    0.0000 C   0  0  0  0  0  0  0  0  0  0  0  0
    6.4302   -1.2375    0.0000 C   0  0  0  0  0  0  0  0  0  0  0  0
    7.1447   -1.6500    0.0000 C   0  0  0  0  0  0  0  0  0  0  0  0
    7.1447   -2.4750    0.0000 C   0  0  0  0  0  0  0  0  0  0  0  0
    7.8592   -2.8875    0.0000 N   0  0  0  0  0  0  0  0  0  0  0  0
    7.8592   -3.7125    0.0000 C   0  0  0  0  0  0  0  0  0  0  0  0
    7.1447   -4.1250    0.0000 O   0  0  0  0  0  0  0  0  0  0  0  0
    8.5737   -4.1250    0.0000 C   0  0  0  0  0  0  0  0  0  0  0  0
    9.2881   -3.7125    0.0000 C   0  0  0  0  0  0  0  0  0  0  0  0
   10.0026   -4.1250    0.0000 C   0  0  0  0  0  0  0  0  0  0  0  0
   10.0026   -4.9500    0.0000 C   0  0  0  0  0  0  0  0  0  0  0  0
    9.2881   -5.3625    0.0000 C   0  0  0  0  0  0  0  0  0  0  0  0
    8.5737   -4.9500    0.0000 C   0  0  0  0  0  0  0  0  0  0  0  0
    7.8592   -5.3625    0.0000 N   0  0  0  0  0  0  0  0  0  0  0  0
    7.8592   -6.1875    0.0000 C   0  0  0  0  0  0  0  0  0  0  0  0
    7.1447   -6.6000    0.0000 O   0  0  0  0  0  0  0  0  0  0  0  0
    8.5737   -6.6000    0.0000 C   0  0  0  0  0  0  0  0  0  0  0  0
    9.2881   -6.1875    0.0000 C   0  0  0  0  0  0  0  0  0  0  0  0
   10.0026   -6.6000    0.0000 C   0  0  0  0  0  0  0  0  0  0  0  0
   10.0026   -7.4250    0.0000 C   0  0  0  0  0  0  0  0  0  0  0  0
   10.7171   -7.8375    0.0000 C   0  0  0  0  0  0  0  0  0  0  0  0
    9.2881   -7.8375    0.0000 C   0  0  0  0  0  0  0  0  0  0  0  0
    8.5737   -7.4250    0.0000 C   0  0  0  0  0  0  0  0  0  0  0  0
    6.4302   -2.8875    0.0000 C   0  0  0  0  0  0  0  0  0  0  0  0
    5.7158   -2.4750    0.0000 C   0  0  0  0  0  0  0  0  0  0  0  0
    2.8579   -1.6500    0.0000 C   0  0  0  0  0  0  0  0  0  0  0  0
    2.1434   -1.2375    0.0000 C   0  0  0  0  0  0  0  0  0  0  0  0
    1.4289   -1.6500    0.0000 C   0  0  0  0  0  0  0  0  0  0  0  0
    0.7145   -1.2375    0.0000 C   0  0  0  0  0  0  0  0  0  0  0  0
    0.0000   -1.6500    0.0000 O   0  0  0  0  0  0  0  0  0  0  0  0
   -0.7145   -1.2375    0.0000 C   0  0  0  0  0  0  0  0  0  0  0  0
  1  2  1  0  0  0  0
  2  3  1  0  0  0  0
  3  4  2  0  0  0  0
  3 39  1  0  0  0  0
  4  5  1  0  0  0  0
  5  6  1  0  0  0  0
  5 37  2  0  0  0  0
  6  7  1  0  0  0  0
  7  8  1  0  0  0  0
  8  9  1  0  0  0  0
  8 36  1  0  0  0  0
  9 10  1  0  0  0  0
 10 11  1  0  0  0  0
 11 12  2  0  0  0  0
 11 35  1  0  0  0  0
 12 13  1  0  0  0  0
 13 14  2  0  0  0  0
 14 15  1  0  0  0  0
 14 34  1  0  0  0  0
 15 16  1  0  0  0  0
 16 17  2  0  0  0  0
 16 18  1  0  0  0  0
 18 19  2  0  0  0  0
 18 23  1  0  0  0  0
 19 20  1  0  0  0  0
 20 21  2  0  0  0  0
 21 22  1  0  0  0  0
 22 23  2  0  0  0  0
 23 24  1  0  0  0  0
 24 25  1  0  0  0  0
 25 26  2  0  0  0  0
 25 27  1  0  0  0  0
 27 28  2  0  0  0  0
 27 33  1  0  0  0  0
 28 29  1  0  0  0  0
 29 30  2  0  0  0  0
 30 31  1  0  0  0  0
 30 32  1  0  0  0  0
 32 33  2  0  0  0  0
 34 35  2  0  0  0  0
 36 37  1  0  0  0  0
 37 38  1  0  0  0  0
 38 39  2  0  0  0  0
 39 40  1  0  0  0  0
 40 41  1  0  0  0  0
M  END
$$$$

 OpenBabel12191814062D

 44 49  0  0  0  0  0  0  0  0999 V2000
    7.1447   -6.6000    0.0000 C   0  0  0  0  0  0  0  0  0  0  0  0
    7.8592   -6.1875    0.0000 O   0  0  0  0  0  0  0  0  0  0  0  0
    8.5737   -6.6000    0.0000 C   0  0  0  0  0  0  0  0  0  0  0  0
    9.2881   -6.1875    0.0000 C   0  0  0  0  0  0  0  0  0  0  0  0
   10.0026   -6.6000    0.0000 C   0  0  0  0  0  0  0  0  0  0  0  0
   10.7171   -6.1875    0.0000 C   0  0  0  0  0  0  0  0  0  0  0  0
   11.4315   -6.6000    0.0000 C   0  0  0  0  0  0  0  0  0  0  0  0
   11.4315   -7.4250    0.0000 N   0  0  0  0  0  0  0  0  0  0  0  0
   12.1460   -7.8375    0.0000 C   0  0  0  0  0  0  0  0  0  0  0  0
   12.8605   -7.4250    0.0000 C   0  0  0  0  0  0  0  0  0  0  0  0
   13.5749   -7.8375    0.0000 C   0  0  0  0  0  0  0  0  0  0  0  0
   14.2894   -7.4250    0.0000 C   0  0  0  0  0  0  0  0  0  0  0  0
   15.0039   -7.8375    0.0000 C   0  0  0  0  0  0  0  0  0  0  0  0
   15.0039   -8.6625    0.0000 C   0  0  0  0  0  0  0  0  0  0  0  0
   15.7184   -9.0750    0.0000 N   0  0  0  0  0  0  0  0  0  0  0  0
   15.7184   -9.9000    0.0000 C   0  0  0  0  0  0  0  0  0  0  0  0
   15.0039  -10.3125    0.0000 O   0  0  0  0  0  0  0  0  0  0  0  0
   16.4328  -10.3125    0.0000 C   0  0  0  0  0  0  0  0  0  0  0  0
   17.1473   -9.9000    0.0000 C   0  0  0  0  0  0  0  0  0  0  0  0
   17.8618  -10.3125    0.0000 C   0  0  0  0  0  0  0  0  0  0  0  0
   17.8618  -11.1375    0.0000 C   0  0  0  0  0  0  0  0  0  0  0  0
   17.1473  -11.5500    0.0000 C   0  0  0  0  0  0  0  0  0  0  0  0
   16.4328  -11.1375    0.0000 C   0  0  0  0  0  0  0  0  0  0  0  0
   15.7184  -11.5500    0.0000 N   0  0  0  0  0  0  0  0  0  0  0  0
   15.7184  -12.3750    0.0000 C   0  0  0  0  0  0  0  0  0  0  0  0
   15.0039  -12.7875    0.0000 O   0  0  0  0  0  0  0  0  0  0  0  0
   16.4328  -12.7875    0.0000 C   0  0  0  0  0  0  0  0  0  0  0  0
   17.1473  -12.3750    0.0000 C   0  0  0  0  0  0  0  0  0  0  0  0
   17.8618  -12.7875    0.0000 C   0  0  0  0  0  0  0  0  0  0  0  0
   17.8618  -13.6125    0.0000 C   0  0  0  0  0  0  0  0  0  0  0  0
   18.5762  -14.0250    0.0000 C   0  0  0  0  0  0  0  0  0  0  0  0
   18.5762  -14.8500    0.0000 C   0  0  0  0  0  0  0  0  0  0  0  0
   17.8618  -15.2625    0.0000 C   0  0  0  0  0  0  0  0  0  0  0  0
   17.1473  -14.8500    0.0000 C   0  0  0  0  0  0  0  0  0  0  0  0
   17.1473  -14.0250    0.0000 C   0  0  0  0  0  0  0  0  0  0  0  0
   16.4328  -13.6125    0.0000 N   0  0  0  0  0  0  0  0  0  0  0  0
   14.2894   -9.0750    0.0000 C   0  0  0  0  0  0  0  0  0  0  0  0
   13.5749   -8.6625    0.0000 C   0  0  0  0  0  0  0  0  0  0  0  0
   10.7171   -7.8375    0.0000 C   0  0  0  0  0  0  0  0  0  0  0  0
   10.0026   -7.4250    0.0000 C   0  0  0  0  0  0  0  0  0  0  0  0
    9.2881   -7.8375    0.0000 C   0  0  0  0  0  0  0  0  0  0  0  0
    8.5737   -7.4250    0.0000 C   0  0  0  0  0  0  0  0  0  0  0  0
    7.8592   -7.8375    0.0000 O   0  0  0  0  0  0  0  0  0  0  0  0
    7.1447   -7.4250    0.0000 C   0  0  0  0  0  0  0  0  0  0  0  0
  1  2  1  0  0  0  0
  2  3  1  0  0  0  0
  3  4  2  0  0  0  0
  3 42  1  0  0  0  0
  4  5  1  0  0  0  0
  5  6  1  0  0  0  0
  5 40  2  0  0  0  0
  6  7  1  0  0  0  0
  7  8  1  0  0  0  0
  8  9  1  0  0  0  0
  8 39  1  0  0  0  0
  9 10  1  0  0  0  0
 10 11  1  0  0  0  0
 11 12  2  0  0  0  0
 11 38  1  0  0  0  0
 12 13  1  0  0  0  0
 13 14  2  0  0  0  0
 14 15  1  0  0  0  0
 14 37  1  0  0  0  0
 15 16  1  0  0  0  0
 16 17  2  0  0  0  0
 16 18  1  0  0  0  0
 18 19  2  0  0  0  0
 18 23  1  0  0  0  0
 19 20  1  0  0  0  0
 20 21  2  0  0  0  0
 21 22  1  0  0  0  0
 22 23  2  0  0  0  0
 23 24  1  0  0  0  0
 24 25  1  0  0  0  0
 25 26  2  0  0  0  0
 25 27  1  0  0  0  0
 27 28  2  0  0  0  0
 27 36  1  0  0  0  0
 28 29  1  0  0  0  0
 29 30  2  0  0  0  0
 30 31  1  0  0  0  0
 30 35  1  0  0  0  0
 31 32  2  0  0  0  0
 32 33  1  0  0  0  0
 33 34  2  0  0  0  0
 34 35  1  0  0  0  0
 35 36  2  0  0  0  0
 37 38  2  0  0  0  0
 39 40  1  0  0  0  0
 40 41  1  0  0  0  0
 41 42  2  0  0  0  0
 42 43  1  0  0  0  0
 43 44  1  0  0  0  0
M  END
$$$$

 OpenBabel12191814062D

 44 49  0  0  0  0  0  0  0  0999 V2000
   -6.4302    4.5375    0.0000 C   0  0  0  0  0  0  0  0  0  0  0  0
   -5.7158    4.9500    0.0000 O   0  0  0  0  0  0  0  0  0  0  0  0
   -5.0013    4.5375    0.0000 C   0  0  0  0  0  0  0  0  0  0  0  0
   -4.2868    4.9500    0.0000 C   0  0  0  0  0  0  0  0  0  0  0  0
   -3.5724    4.5375    0.0000 C   0  0  0  0  0  0  0  0  0  0  0  0
   -2.8579    4.9500    0.0000 C   0  0  0  0  0  0  0  0  0  0  0  0
   -2.1434    4.5375    0.0000 C   0  0  0  0  0  0  0  0  0  0  0  0
   -2.1434    3.7125    0.0000 N   0  0  0  0  0  0  0  0  0  0  0  0
   -1.4289    3.3000    0.0000 C   0  0  0  0  0  0  0  0  0  0  0  0
   -0.7145    3.7125    0.0000 C   0  0  0  0  0  0  0  0  0  0  0  0
   -0.0000    3.3000    0.0000 C   0  0  0  0  0  0  0  0  0  0  0  0
    0.7145    3.7125    0.0000 C   0  0  0  0  0  0  0  0  0  0  0  0
    1.4289    3.3000    0.0000 C   0  0  0  0  0  0  0  0  0  0  0  0
    1.4289    2.4750    0.0000 C   0  0  0  0  0  0  0  0  0  0  0  0
    2.1434    2.0625    0.0000 N   0  0  0  0  0  0  0  0  0  0  0  0
    2.8579    2.4750    0.0000 C   0  0  0  0  0  0  0  0  0  0  0  0
    2.8579    3.3000    0.0000 O   0  0  0  0  0  0  0  0  0  0  0  0
    3.5724    2.0625    0.0000 C   0  0  0  0  0  0  0  0  0  0  0  0
    4.2868    2.4750    0.0000 C   0  0  0  0  0  0  0  0  0  0  0  0
    5.0013    2.0625    0.0000 C   0  0  0  0  0  0  0  0  0  0  0  0
    5.0013    1.2375    0.0000 C   0  0  0  0  0  0  0  0  0  0  0  0
    4.2868    0.8250    0.0000 C   0  0  0  0  0  0  0  0  0  0  0  0
    3.5724    1.2375    0.0000 C   0  0  0  0  0  0  0  0  0  0  0  0
    2.8579    0.8250    0.0000 N   0  0  0  0  0  0  0  0  0  0  0  0
    2.8579   -0.0000    0.0000 C   0  0  0  0  0  0  0  0  0  0  0  0
    3.5724   -0.4125    0.0000 O   0  0  0  0  0  0  0  0  0  0  0  0
    2.1434   -0.4125    0.0000 C   0  0  0  0  0  0  0  0  0  0  0  0
    2.1434   -1.2375    0.0000 C   0  0  0  0  0  0  0  0  0  0  0  0
    1.4289   -1.6500    0.0000 C   0  0  0  0  0  0  0  0  0  0  0  0
    0.7145   -1.2375    0.0000 C   0  0  0  0  0  0  0  0  0  0  0  0
    0.7145   -0.4125    0.0000 C   0  0  0  0  0  0  0  0  0  0  0  0
   -0.0000   -0.0000    0.0000 C   0  0  0  0  0  0  0  0  0  0  0  0
   -0.0000    0.8250    0.0000 C   0  0  0  0  0  0  0  0  0  0  0  0
    0.7145    1.2375    0.0000 C   0  0  0  0  0  0  0  0  0  0  0  0
    1.4289    0.8250    0.0000 C   0  0  0  0  0  0  0  0  0  0  0  0
    1.4289   -0.0000    0.0000 C   0  0  0  0  0  0  0  0  0  0  0  0
    0.7145    2.0625    0.0000 C   0  0  0  0  0  0  0  0  0  0  0  0
   -0.0000    2.4750    0.0000 C   0  0  0  0  0  0  0  0  0  0  0  0
   -2.8579    3.3000    0.0000 C   0  0  0  0  0  0  0  0  0  0  0  0
   -3.5724    3.7125    0.0000 C   0  0  0  0  0  0  0  0  0  0  0  0
   -4.2868    3.3000    0.0000 C   0  0  0  0  0  0  0  0  0  0  0  0
   -5.0013    3.7125    0.0000 C   0  0  0  0  0  0  0  0  0  0  0  0
   -5.7158    3.3000    0.0000 O   0  0  0  0  0  0  0  0  0  0  0  0
   -6.4302    3.7125    0.0000 C   0  0  0  0  0  0  0  0  0  0  0  0
  1  2  1  0  0  0  0
  2  3  1  0  0  0  0
  3  4  2  0  0  0  0
  3 42  1  0  0  0  0
  4  5  1  0  0  0  0
  5  6  1  0  0  0  0
  5 40  2  0  0  0  0
  6  7  1  0  0  0  0
  7  8  1  0  0  0  0
  8  9  1  0  0  0  0
  8 39  1  0  0  0  0
  9 10  1  0  0  0  0
 10 11  1  0  0  0  0
 11 12  2  0  0  0  0
 11 38  1  0  0  0  0
 12 13  1  0  0  0  0
 13 14  2  0  0  0  0
 14 15  1  0  0  0  0
 14 37  1  0  0  0  0
 15 16  1  0  0  0  0
 16 17  2  0  0  0  0
 16 18  1  0  0  0  0
 18 19  2  0  0  0  0
 18 23  1  0  0  0  0
 19 20  1  0  0  0  0
 20 21  2  0  0  0  0
 21 22  1  0  0  0  0
 22 23  2  0  0  0  0
 23 24  1  0  0  0  0
 24 25  1  0  0  0  0
 25 26  2  0  0  0  0
 25 27  1  0  0  0  0
 27 28  2  0  0  0  0
 27 36  1  0  0  0  0
 28 29  1  0  0  0  0
 29 30  2  0  0  0  0
 30 31  1  0  0  0  0
 31 32  2  0  0  0  0
 31 36  1  0  0  0  0
 32 33  1  0  0  0  0
 33 34  2  0  0  0  0
 34 35  1  0  0  0  0
 35 36  2  0  0  0  0
 37 38  2  0  0  0  0
 39 40  1  0  0  0  0
 40 41  1  0  0  0  0
 41 42  2  0  0  0  0
 42 43  1  0  0  0  0
 43 44  1  0  0  0  0
M  END
$$$$

 OpenBabel12191814062D

 40 44  0  0  0  0  0  0  0  0999 V2000
   -0.7145   -0.4125    0.0000 C   0  0  0  0  0  0  0  0  0  0  0  0
    0.0000    0.0000    0.0000 O   0  0  0  0  0  0  0  0  0  0  0  0
    0.7145   -0.4125    0.0000 C   0  0  0  0  0  0  0  0  0  0  0  0
    1.4289    0.0000    0.0000 C   0  0  0  0  0  0  0  0  0  0  0  0
    2.1434   -0.4125    0.0000 C   0  0  0  0  0  0  0  0  0  0  0  0
    2.8579    0.0000    0.0000 C   0  0  0  0  0  0  0  0  0  0  0  0
    3.5724   -0.4125    0.0000 C   0  0  0  0  0  0  0  0  0  0  0  0
    3.5724   -1.2375    0.0000 N   0  0  0  0  0  0  0  0  0  0  0  0
    4.2868   -1.6500    0.0000 C   0  0  0  0  0  0  0  0  0  0  0  0
    5.0013   -1.2375    0.0000 C   0  0  0  0  0  0  0  0  0  0  0  0
    5.7158   -1.6500    0.0000 C   0  0  0  0  0  0  0  0  0  0  0  0
    6.4302   -1.2375    0.0000 C   0  0  0  0  0  0  0  0  0  0  0  0
    7.1447   -1.6500    0.0000 C   0  0  0  0  0  0  0  0  0  0  0  0
    7.1447   -2.4750    0.0000 C   0  0  0  0  0  0  0  0  0  0  0  0
    7.8592   -2.8875    0.0000 N   0  0  0  0  0  0  0  0  0  0  0  0
    7.8592   -3.7125    0.0000 C   0  0  0  0  0  0  0  0  0  0  0  0
    7.1447   -4.1250    0.0000 O   0  0  0  0  0  0  0  0  0  0  0  0
    8.5737   -4.1250    0.0000 C   0  0  0  0  0  0  0  0  0  0  0  0
    9.2881   -3.7125    0.0000 C   0  0  0  0  0  0  0  0  0  0  0  0
   10.0026   -4.1250    0.0000 C   0  0  0  0  0  0  0  0  0  0  0  0
   10.0026   -4.9500    0.0000 C   0  0  0  0  0  0  0  0  0  0  0  0
    9.2881   -5.3625    0.0000 C   0  0  0  0  0  0  0  0  0  0  0  0
    8.5737   -4.9500    0.0000 C   0  0  0  0  0  0  0  0  0  0  0  0
    7.8592   -5.3625    0.0000 N   0  0  0  0  0  0  0  0  0  0  0  0
    7.8592   -6.1875    0.0000 C   0  0  0  0  0  0  0  0  0  0  0  0
    7.1447   -6.6000    0.0000 O   0  0  0  0  0  0  0  0  0  0  0  0
    8.5737   -6.6000    0.0000 C   0  0  0  0  0  0  0  0  0  0  0  0
    9.2881   -6.1875    0.0000 C   0  0  0  0  0  0  0  0  0  0  0  0
   10.0026   -6.6000    0.0000 C   0  0  0  0  0  0  0  0  0  0  0  0
   10.0026   -7.4250    0.0000 C   0  0  0  0  0  0  0  0  0  0  0  0
    9.2881   -7.8375    0.0000 C   0  0  0  0  0  0  0  0  0  0  0  0
    8.5737   -7.4250    0.0000 C   0  0  0  0  0  0  0  0  0  0  0  0
    6.4302   -2.8875    0.0000 C   0  0  0  0  0  0  0  0  0  0  0  0
    5.7158   -2.4750    0.0000 C   0  0  0  0  0  0  0  0  0  0  0  0
    2.8579   -1.6500    0.0000 C   0  0  0  0  0  0  0  0  0  0  0  0
    2.1434   -1.2375    0.0000 C   0  0  0  0  0  0  0  0  0  0  0  0
    1.4289   -1.6500    0.0000 C   0  0  0  0  0  0  0  0  0  0  0  0
    0.7145   -1.2375    0.0000 C   0  0  0  0  0  0  0  0  0  0  0  0
    0.0000   -1.6500    0.0000 O   0  0  0  0  0  0  0  0  0  0  0  0
   -0.7145   -1.2375    0.0000 C   0  0  0  0  0  0  0  0  0  0  0  0
  1  2  1  0  0  0  0
  2  3  1  0  0  0  0
  3  4  2  0  0  0  0
  3 38  1  0  0  0  0
  4  5  1  0  0  0  0
  5  6  1  0  0  0  0
  5 36  2  0  0  0  0
  6  7  1  0  0  0  0
  7  8  1  0  0  0  0
  8  9  1  0  0  0  0
  8 35  1  0  0  0  0
  9 10  1  0  0  0  0
 10 11  1  0  0  0  0
 11 12  2  0  0  0  0
 11 34  1  0  0  0  0
 12 13  1  0  0  0  0
 13 14  2  0  0  0  0
 14 15  1  0  0  0  0
 14 33  1  0  0  0  0
 15 16  1  0  0  0  0
 16 17  2  0  0  0  0
 16 18  1  0  0  0  0
 18 19  2  0  0  0  0
 18 23  1  0  0  0  0
 19 20  1  0  0  0  0
 20 21  2  0  0  0  0
 21 22  1  0  0  0  0
 22 23  2  0  0  0  0
 23 24  1  0  0  0  0
 24 25  1  0  0  0  0
 25 26  2  0  0  0  0
 25 27  1  0  0  0  0
 27 28  2  0  0  0  0
 27 32  1  0  0  0  0
 28 29  1  0  0  0  0
 29 30  2  0  0  0  0
 30 31  1  0  0  0  0
 31 32  2  0  0  0  0
 33 34  2  0  0  0  0
 35 36  1  0  0  0  0
 36 37  1  0  0  0  0
 37 38  2  0  0  0  0
 38 39  1  0  0  0  0
 39 40  1  0  0  0  0
M  END
$$$$

 OpenBabel12191814062D

 40 44  0  0  0  0  0  0  0  0999 V2000
   -0.7145   -0.4125    0.0000 C   0  0  0  0  0  0  0  0  0  0  0  0
    0.0000    0.0000    0.0000 O   0  0  0  0  0  0  0  0  0  0  0  0
    0.7145   -0.4125    0.0000 C   0  0  0  0  0  0  0  0  0  0  0  0
    1.4289    0.0000    0.0000 C   0  0  0  0  0  0  0  0  0  0  0  0
    2.1434   -0.4125    0.0000 C   0  0  0  0  0  0  0  0  0  0  0  0
    2.8579    0.0000    0.0000 C   0  0  0  0  0  0  0  0  0  0  0  0
    3.5724   -0.4125    0.0000 C   0  0  0  0  0  0  0  0  0  0  0  0
    3.5724   -1.2375    0.0000 N   0  0  0  0  0  0  0  0  0  0  0  0
    4.2868   -1.6500    0.0000 C   0  0  0  0  0  0  0  0  0  0  0  0
    5.0013   -1.2375    0.0000 C   0  0  0  0  0  0  0  0  0  0  0  0
    5.7158   -1.6500    0.0000 C   0  0  0  0  0  0  0  0  0  0  0  0
    6.4302   -1.2375    0.0000 C   0  0  0  0  0  0  0  0  0  0  0  0
    7.1447   -1.6500    0.0000 C   0  0  0  0  0  0  0  0  0  0  0  0
    7.1447   -2.4750    0.0000 C   0  0  0  0  0  0  0  0  0  0  0  0
    7.8592   -2.8875    0.0000 N   0  0  0  0  0  0  0  0  0  0  0  0
    7.8592   -3.7125    0.0000 C   0  0  0  0  0  0  0  0  0  0  0  0
    7.1447   -4.1250    0.0000 O   0  0  0  0  0  0  0  0  0  0  0  0
    8.5737   -4.1250    0.0000 C   0  0  0  0  0  0  0  0  0  0  0  0
    9.2881   -3.7125    0.0000 C   0  0  0  0  0  0  0  0  0  0  0  0
   10.0026   -4.1250    0.0000 C   0  0  0  0  0  0  0  0  0  0  0  0
   10.0026   -4.9500    0.0000 C   0  0  0  0  0  0  0  0  0  0  0  0
    9.2881   -5.3625    0.0000 C   0  0  0  0  0  0  0  0  0  0  0  0
    8.5737   -4.9500    0.0000 C   0  0  0  0  0  0  0  0  0  0  0  0
    7.8592   -5.3625    0.0000 N   0  0  0  0  0  0  0  0  0  0  0  0
    7.8592   -6.1875    0.0000 C   0  0  0  0  0  0  0  0  0  0  0  0
    7.1447   -6.6000    0.0000 O   0  0  0  0  0  0  0  0  0  0  0  0
    8.5737   -6.6000    0.0000 C   0  0  0  0  0  0  0  0  0  0  0  0
    9.2881   -6.1875    0.0000 C   0  0  0  0  0  0  0  0  0  0  0  0
   10.0026   -6.6000    0.0000 C   0  0  0  0  0  0  0  0  0  0  0  0
   10.0026   -7.4250    0.0000 C   0  0  0  0  0  0  0  0  0  0  0  0
    9.2881   -7.8375    0.0000 C   0  0  0  0  0  0  0  0  0  0  0  0
    8.5737   -7.4250    0.0000 N   0  0  0  0  0  0  0  0  0  0  0  0
    6.4302   -2.8875    0.0000 C   0  0  0  0  0  0  0  0  0  0  0  0
    5.7158   -2.4750    0.0000 C   0  0  0  0  0  0  0  0  0  0  0  0
    2.8579   -1.6500    0.0000 C   0  0  0  0  0  0  0  0  0  0  0  0
    2.1434   -1.2375    0.0000 C   0  0  0  0  0  0  0  0  0  0  0  0
    1.4289   -1.6500    0.0000 C   0  0  0  0  0  0  0  0  0  0  0  0
    0.7145   -1.2375    0.0000 C   0  0  0  0  0  0  0  0  0  0  0  0
    0.0000   -1.6500    0.0000 O   0  0  0  0  0  0  0  0  0  0  0  0
   -0.7145   -1.2375    0.0000 C   0  0  0  0  0  0  0  0  0  0  0  0
  1  2  1  0  0  0  0
  2  3  1  0  0  0  0
  3  4  2  0  0  0  0
  3 38  1  0  0  0  0
  4  5  1  0  0  0  0
  5  6  1  0  0  0  0
  5 36  2  0  0  0  0
  6  7  1  0  0  0  0
  7  8  1  0  0  0  0
  8  9  1  0  0  0  0
  8 35  1  0  0  0  0
  9 10  1  0  0  0  0
 10 11  1  0  0  0  0
 11 12  2  0  0  0  0
 11 34  1  0  0  0  0
 12 13  1  0  0  0  0
 13 14  2  0  0  0  0
 14 15  1  0  0  0  0
 14 33  1  0  0  0  0
 15 16  1  0  0  0  0
 16 17  2  0  0  0  0
 16 18  1  0  0  0  0
 18 19  2  0  0  0  0
 18 23  1  0  0  0  0
 19 20  1  0  0  0  0
 20 21  2  0  0  0  0
 21 22  1  0  0  0  0
 22 23  2  0  0  0  0
 23 24  1  0  0  0  0
 24 25  1  0  0  0  0
 25 26  2  0  0  0  0
 25 27  1  0  0  0  0
 27 28  2  0  0  0  0
 27 32  1  0  0  0  0
 28 29  1  0  0  0  0
 29 30  2  0  0  0  0
 30 31  1  0  0  0  0
 31 32  2  0  0  0  0
 33 34  2  0  0  0  0
 35 36  1  0  0  0  0
 36 37  1  0  0  0  0
 37 38  2  0  0  0  0
 38 39  1  0  0  0  0
 39 40  1  0  0  0  0
M  END
$$$$

 OpenBabel12191814062D

 40 44  0  0  0  0  0  0  0  0999 V2000
   -0.7145   -0.4125    0.0000 C   0  0  0  0  0  0  0  0  0  0  0  0
    0.0000    0.0000    0.0000 O   0  0  0  0  0  0  0  0  0  0  0  0
    0.7145   -0.4125    0.0000 C   0  0  0  0  0  0  0  0  0  0  0  0
    1.4289    0.0000    0.0000 C   0  0  0  0  0  0  0  0  0  0  0  0
    2.1434   -0.4125    0.0000 C   0  0  0  0  0  0  0  0  0  0  0  0
    2.8579    0.0000    0.0000 C   0  0  0  0  0  0  0  0  0  0  0  0
    3.5724   -0.4125    0.0000 C   0  0  0  0  0  0  0  0  0  0  0  0
    3.5724   -1.2375    0.0000 N   0  0  0  0  0  0  0  0  0  0  0  0
    4.2868   -1.6500    0.0000 C   0  0  0  0  0  0  0  0  0  0  0  0
    5.0013   -1.2375    0.0000 C   0  0  0  0  0  0  0  0  0  0  0  0
    5.7158   -1.6500    0.0000 C   0  0  0  0  0  0  0  0  0  0  0  0
    6.4302   -1.2375    0.0000 C   0  0  0  0  0  0  0  0  0  0  0  0
    7.1447   -1.6500    0.0000 C   0  0  0  0  0  0  0  0  0  0  0  0
    7.1447   -2.4750    0.0000 C   0  0  0  0  0  0  0  0  0  0  0  0
    7.8592   -2.8875    0.0000 N   0  0  0  0  0  0  0  0  0  0  0  0
    7.8592   -3.7125    0.0000 C   0  0  0  0  0  0  0  0  0  0  0  0
    7.1447   -4.1250    0.0000 O   0  0  0  0  0  0  0  0  0  0  0  0
    8.5737   -4.1250    0.0000 C   0  0  0  0  0  0  0  0  0  0  0  0
    9.2881   -3.7125    0.0000 C   0  0  0  0  0  0  0  0  0  0  0  0
   10.0026   -4.1250    0.0000 C   0  0  0  0  0  0  0  0  0  0  0  0
   10.0026   -4.9500    0.0000 C   0  0  0  0  0  0  0  0  0  0  0  0
    9.2881   -5.3625    0.0000 C   0  0  0  0  0  0  0  0  0  0  0  0
    8.5737   -4.9500    0.0000 C   0  0  0  0  0  0  0  0  0  0  0  0
    7.8592   -5.3625    0.0000 N   0  0  0  0  0  0  0  0  0  0  0  0
    7.8592   -6.1875    0.0000 C   0  0  0  0  0  0  0  0  0  0  0  0
    7.1447   -6.6000    0.0000 O   0  0  0  0  0  0  0  0  0  0  0  0
    8.5737   -6.6000    0.0000 C   0  0  0  0  0  0  0  0  0  0  0  0
    9.2881   -6.1875    0.0000 C   0  0  0  0  0  0  0  0  0  0  0  0
   10.0026   -6.6000    0.0000 C   0  0  0  0  0  0  0  0  0  0  0  0
   10.0026   -7.4250    0.0000 C   0  0  0  0  0  0  0  0  0  0  0  0
    9.2881   -7.8375    0.0000 N   0  0  0  0  0  0  0  0  0  0  0  0
    8.5737   -7.4250    0.0000 C   0  0  0  0  0  0  0  0  0  0  0  0
    6.4302   -2.8875    0.0000 C   0  0  0  0  0  0  0  0  0  0  0  0
    5.7158   -2.4750    0.0000 C   0  0  0  0  0  0  0  0  0  0  0  0
    2.8579   -1.6500    0.0000 C   0  0  0  0  0  0  0  0  0  0  0  0
    2.1434   -1.2375    0.0000 C   0  0  0  0  0  0  0  0  0  0  0  0
    1.4289   -1.6500    0.0000 C   0  0  0  0  0  0  0  0  0  0  0  0
    0.7145   -1.2375    0.0000 C   0  0  0  0  0  0  0  0  0  0  0  0
    0.0000   -1.6500    0.0000 O   0  0  0  0  0  0  0  0  0  0  0  0
   -0.7145   -1.2375    0.0000 C   0  0  0  0  0  0  0  0  0  0  0  0
  1  2  1  0  0  0  0
  2  3  1  0  0  0  0
  3  4  2  0  0  0  0
  3 38  1  0  0  0  0
  4  5  1  0  0  0  0
  5  6  1  0  0  0  0
  5 36  2  0  0  0  0
  6  7  1  0  0  0  0
  7  8  1  0  0  0  0
  8  9  1  0  0  0  0
  8 35  1  0  0  0  0
  9 10  1  0  0  0  0
 10 11  1  0  0  0  0
 11 12  2  0  0  0  0
 11 34  1  0  0  0  0
 12 13  1  0  0  0  0
 13 14  2  0  0  0  0
 14 15  1  0  0  0  0
 14 33  1  0  0  0  0
 15 16  1  0  0  0  0
 16 17  2  0  0  0  0
 16 18  1  0  0  0  0
 18 19  2  0  0  0  0
 18 23  1  0  0  0  0
 19 20  1  0  0  0  0
 20 21  2  0  0  0  0
 21 22  1  0  0  0  0
 22 23  2  0  0  0  0
 23 24  1  0  0  0  0
 24 25  1  0  0  0  0
 25 26  2  0  0  0  0
 25 27  1  0  0  0  0
 27 28  2  0  0  0  0
 27 32  1  0  0  0  0
 28 29  1  0  0  0  0
 29 30  2  0  0  0  0
 30 31  1  0  0  0  0
 31 32  2  0  0  0  0
 33 34  2  0  0  0  0
 35 36  1  0  0  0  0
 36 37  1  0  0  0  0
 37 38  2  0  0  0  0
 38 39  1  0  0  0  0
 39 40  1  0  0  0  0
M  END
$$$$

 OpenBabel12191814062D

 39 43  0  0  0  0  0  0  0  0999 V2000
   -0.7145   -0.4125    0.0000 C   0  0  0  0  0  0  0  0  0  0  0  0
    0.0000    0.0000    0.0000 O   0  0  0  0  0  0  0  0  0  0  0  0
    0.7145   -0.4125    0.0000 C   0  0  0  0  0  0  0  0  0  0  0  0
    1.4289    0.0000    0.0000 C   0  0  0  0  0  0  0  0  0  0  0  0
    2.1434   -0.4125    0.0000 C   0  0  0  0  0  0  0  0  0  0  0  0
    2.8579    0.0000    0.0000 C   0  0  0  0  0  0  0  0  0  0  0  0
    3.5724   -0.4125    0.0000 C   0  0  0  0  0  0  0  0  0  0  0  0
    3.5724   -1.2375    0.0000 N   0  0  0  0  0  0  0  0  0  0  0  0
    4.2868   -1.6500    0.0000 C   0  0  0  0  0  0  0  0  0  0  0  0
    5.0013   -1.2375    0.0000 C   0  0  0  0  0  0  0  0  0  0  0  0
    5.7158   -1.6500    0.0000 C   0  0  0  0  0  0  0  0  0  0  0  0
    6.4302   -1.2375    0.0000 C   0  0  0  0  0  0  0  0  0  0  0  0
    7.1447   -1.6500    0.0000 C   0  0  0  0  0  0  0  0  0  0  0  0
    7.1447   -2.4750    0.0000 C   0  0  0  0  0  0  0  0  0  0  0  0
    7.8592   -2.8875    0.0000 N   0  0  0  0  0  0  0  0  0  0  0  0
    7.8592   -3.7125    0.0000 C   0  0  0  0  0  0  0  0  0  0  0  0
    7.1447   -4.1250    0.0000 O   0  0  0  0  0  0  0  0  0  0  0  0
    8.5737   -4.1250    0.0000 C   0  0  0  0  0  0  0  0  0  0  0  0
    9.2881   -3.7125    0.0000 C   0  0  0  0  0  0  0  0  0  0  0  0
   10.0026   -4.1250    0.0000 C   0  0  0  0  0  0  0  0  0  0  0  0
   10.0026   -4.9500    0.0000 C   0  0  0  0  0  0  0  0  0  0  0  0
    9.2881   -5.3625    0.0000 C   0  0  0  0  0  0  0  0  0  0  0  0
    8.5737   -4.9500    0.0000 C   0  0  0  0  0  0  0  0  0  0  0  0
    7.8592   -5.3625    0.0000 N   0  0  0  0  0  0  0  0  0  0  0  0
    7.8592   -6.1875    0.0000 C   0  0  0  0  0  0  0  0  0  0  0  0
    7.1447   -6.6000    0.0000 O   0  0  0  0  0  0  0  0  0  0  0  0
    8.5737   -6.6000    0.0000 C   0  0  0  0  0  0  0  0  0  0  0  0
    9.3273   -6.2644    0.0000 C   0  0  0  0  0  0  0  0  0  0  0  0
    9.8794   -6.8775    0.0000 C   0  0  0  0  0  0  0  0  0  0  0  0
    9.4669   -7.5920    0.0000 C   0  0  0  0  0  0  0  0  0  0  0  0
    8.6599   -7.4205    0.0000 S   0  0  0  0  0  0  0  0  0  0  0  0
    6.4302   -2.8875    0.0000 C   0  0  0  0  0  0  0  0  0  0  0  0
    5.7158   -2.4750    0.0000 C   0  0  0  0  0  0  0  0  0  0  0  0
    2.8579   -1.6500    0.0000 C   0  0  0  0  0  0  0  0  0  0  0  0
    2.1434   -1.2375    0.0000 C   0  0  0  0  0  0  0  0  0  0  0  0
    1.4289   -1.6500    0.0000 C   0  0  0  0  0  0  0  0  0  0  0  0
    0.7145   -1.2375    0.0000 C   0  0  0  0  0  0  0  0  0  0  0  0
    0.0000   -1.6500    0.0000 O   0  0  0  0  0  0  0  0  0  0  0  0
   -0.7145   -1.2375    0.0000 C   0  0  0  0  0  0  0  0  0  0  0  0
  1  2  1  0  0  0  0
  2  3  1  0  0  0  0
  3  4  2  0  0  0  0
  3 37  1  0  0  0  0
  4  5  1  0  0  0  0
  5  6  1  0  0  0  0
  5 35  2  0  0  0  0
  6  7  1  0  0  0  0
  7  8  1  0  0  0  0
  8  9  1  0  0  0  0
  8 34  1  0  0  0  0
  9 10  1  0  0  0  0
 10 11  1  0  0  0  0
 11 12  2  0  0  0  0
 11 33  1  0  0  0  0
 12 13  1  0  0  0  0
 13 14  2  0  0  0  0
 14 15  1  0  0  0  0
 14 32  1  0  0  0  0
 15 16  1  0  0  0  0
 16 17  2  0  0  0  0
 16 18  1  0  0  0  0
 18 19  2  0  0  0  0
 18 23  1  0  0  0  0
 19 20  1  0  0  0  0
 20 21  2  0  0  0  0
 21 22  1  0  0  0  0
 22 23  2  0  0  0  0
 23 24  1  0  0  0  0
 24 25  1  0  0  0  0
 25 26  2  0  0  0  0
 25 27  1  0  0  0  0
 27 28  2  0  0  0  0
 27 31  1  0  0  0  0
 28 29  1  0  0  0  0
 29 30  2  0  0  0  0
 30 31  1  0  0  0  0
 32 33  2  0  0  0  0
 34 35  1  0  0  0  0
 35 36  1  0  0  0  0
 36 37  2  0  0  0  0
 37 38  1  0  0  0  0
 38 39  1  0  0  0  0
M  END
$$$$

 OpenBabel12191814062D

 39 43  0  0  0  0  0  0  0  0999 V2000
   -0.7145   -0.4125    0.0000 C   0  0  0  0  0  0  0  0  0  0  0  0
    0.0000    0.0000    0.0000 O   0  0  0  0  0  0  0  0  0  0  0  0
    0.7145   -0.4125    0.0000 C   0  0  0  0  0  0  0  0  0  0  0  0
    1.4289    0.0000    0.0000 C   0  0  0  0  0  0  0  0  0  0  0  0
    2.1434   -0.4125    0.0000 C   0  0  0  0  0  0  0  0  0  0  0  0
    2.8579    0.0000    0.0000 C   0  0  0  0  0  0  0  0  0  0  0  0
    3.5724   -0.4125    0.0000 C   0  0  0  0  0  0  0  0  0  0  0  0
    3.5724   -1.2375    0.0000 N   0  0  0  0  0  0  0  0  0  0  0  0
    4.2868   -1.6500    0.0000 C   0  0  0  0  0  0  0  0  0  0  0  0
    5.0013   -1.2375    0.0000 C   0  0  0  0  0  0  0  0  0  0  0  0
    5.7158   -1.6500    0.0000 C   0  0  0  0  0  0  0  0  0  0  0  0
    6.4302   -1.2375    0.0000 C   0  0  0  0  0  0  0  0  0  0  0  0
    7.1447   -1.6500    0.0000 C   0  0  0  0  0  0  0  0  0  0  0  0
    7.1447   -2.4750    0.0000 C   0  0  0  0  0  0  0  0  0  0  0  0
    7.8592   -2.8875    0.0000 N   0  0  0  0  0  0  0  0  0  0  0  0
    7.8592   -3.7125    0.0000 C   0  0  0  0  0  0  0  0  0  0  0  0
    7.1447   -4.1250    0.0000 O   0  0  0  0  0  0  0  0  0  0  0  0
    8.5737   -4.1250    0.0000 C   0  0  0  0  0  0  0  0  0  0  0  0
    9.2881   -3.7125    0.0000 C   0  0  0  0  0  0  0  0  0  0  0  0
   10.0026   -4.1250    0.0000 C   0  0  0  0  0  0  0  0  0  0  0  0
   10.0026   -4.9500    0.0000 C   0  0  0  0  0  0  0  0  0  0  0  0
    9.2881   -5.3625    0.0000 C   0  0  0  0  0  0  0  0  0  0  0  0
    8.5737   -4.9500    0.0000 C   0  0  0  0  0  0  0  0  0  0  0  0
    7.8592   -5.3625    0.0000 N   0  0  0  0  0  0  0  0  0  0  0  0
    7.8592   -6.1875    0.0000 C   0  0  0  0  0  0  0  0  0  0  0  0
    7.1447   -6.6000    0.0000 O   0  0  0  0  0  0  0  0  0  0  0  0
    8.5737   -6.6000    0.0000 C   0  0  0  0  0  0  0  0  0  0  0  0
    9.3273   -6.2644    0.0000 C   0  0  0  0  0  0  0  0  0  0  0  0
    9.8794   -6.8775    0.0000 C   0  0  0  0  0  0  0  0  0  0  0  0
    9.4669   -7.5920    0.0000 O   0  0  0  0  0  0  0  0  0  0  0  0
    8.6599   -7.4205    0.0000 C   0  0  0  0  0  0  0  0  0  0  0  0
    6.4302   -2.8875    0.0000 C   0  0  0  0  0  0  0  0  0  0  0  0
    5.7158   -2.4750    0.0000 C   0  0  0  0  0  0  0  0  0  0  0  0
    2.8579   -1.6500    0.0000 C   0  0  0  0  0  0  0  0  0  0  0  0
    2.1434   -1.2375    0.0000 C   0  0  0  0  0  0  0  0  0  0  0  0
    1.4289   -1.6500    0.0000 C   0  0  0  0  0  0  0  0  0  0  0  0
    0.7145   -1.2375    0.0000 C   0  0  0  0  0  0  0  0  0  0  0  0
    0.0000   -1.6500    0.0000 O   0  0  0  0  0  0  0  0  0  0  0  0
   -0.7145   -1.2375    0.0000 C   0  0  0  0  0  0  0  0  0  0  0  0
  1  2  1  0  0  0  0
  2  3  1  0  0  0  0
  3  4  2  0  0  0  0
  3 37  1  0  0  0  0
  4  5  1  0  0  0  0
  5  6  1  0  0  0  0
  5 35  2  0  0  0  0
  6  7  1  0  0  0  0
  7  8  1  0  0  0  0
  8  9  1  0  0  0  0
  8 34  1  0  0  0  0
  9 10  1  0  0  0  0
 10 11  1  0  0  0  0
 11 12  2  0  0  0  0
 11 33  1  0  0  0  0
 12 13  1  0  0  0  0
 13 14  2  0  0  0  0
 14 15  1  0  0  0  0
 14 32  1  0  0  0  0
 15 16  1  0  0  0  0
 16 17  2  0  0  0  0
 16 18  1  0  0  0  0
 18 19  2  0  0  0  0
 18 23  1  0  0  0  0
 19 20  1  0  0  0  0
 20 21  2  0  0  0  0
 21 22  1  0  0  0  0
 22 23  2  0  0  0  0
 23 24  1  0  0  0  0
 24 25  1  0  0  0  0
 25 26  2  0  0  0  0
 25 27  1  0  0  0  0
 27 28  1  0  0  0  0
 27 31  2  0  0  0  0
 28 29  2  0  0  0  0
 29 30  1  0  0  0  0
 30 31  1  0  0  0  0
 32 33  2  0  0  0  0
 34 35  1  0  0  0  0
 35 36  1  0  0  0  0
 36 37  2  0  0  0  0
 37 38  1  0  0  0  0
 38 39  1  0  0  0  0
M  END
$$$$

 OpenBabel12191814062D

 39 43  0  0  0  0  0  0  0  0999 V2000
   -0.7145   -0.4125    0.0000 C   0  0  0  0  0  0  0  0  0  0  0  0
    0.0000    0.0000    0.0000 O   0  0  0  0  0  0  0  0  0  0  0  0
    0.7145   -0.4125    0.0000 C   0  0  0  0  0  0  0  0  0  0  0  0
    1.4289    0.0000    0.0000 C   0  0  0  0  0  0  0  0  0  0  0  0
    2.1434   -0.4125    0.0000 C   0  0  0  0  0  0  0  0  0  0  0  0
    2.8579    0.0000    0.0000 C   0  0  0  0  0  0  0  0  0  0  0  0
    3.5724   -0.4125    0.0000 C   0  0  0  0  0  0  0  0  0  0  0  0
    3.5724   -1.2375    0.0000 N   0  0  0  0  0  0  0  0  0  0  0  0
    4.2868   -1.6500    0.0000 C   0  0  0  0  0  0  0  0  0  0  0  0
    5.0013   -1.2375    0.0000 C   0  0  0  0  0  0  0  0  0  0  0  0
    5.7158   -1.6500    0.0000 C   0  0  0  0  0  0  0  0  0  0  0  0
    6.4302   -1.2375    0.0000 C   0  0  0  0  0  0  0  0  0  0  0  0
    7.1447   -1.6500    0.0000 C   0  0  0  0  0  0  0  0  0  0  0  0
    7.1447   -2.4750    0.0000 C   0  0  0  0  0  0  0  0  0  0  0  0
    7.8592   -2.8875    0.0000 N   0  0  0  0  0  0  0  0  0  0  0  0
    7.8592   -3.7125    0.0000 C   0  0  0  0  0  0  0  0  0  0  0  0
    7.1447   -4.1250    0.0000 O   0  0  0  0  0  0  0  0  0  0  0  0
    8.5737   -4.1250    0.0000 C   0  0  0  0  0  0  0  0  0  0  0  0
    9.2881   -3.7125    0.0000 C   0  0  0  0  0  0  0  0  0  0  0  0
   10.0026   -4.1250    0.0000 C   0  0  0  0  0  0  0  0  0  0  0  0
   10.0026   -4.9500    0.0000 C   0  0  0  0  0  0  0  0  0  0  0  0
    9.2881   -5.3625    0.0000 C   0  0  0  0  0  0  0  0  0  0  0  0
    8.5737   -4.9500    0.0000 C   0  0  0  0  0  0  0  0  0  0  0  0
    7.8592   -5.3625    0.0000 N   0  0  0  0  0  0  0  0  0  0  0  0
    7.8592   -6.1875    0.0000 C   0  0  0  0  0  0  0  0  0  0  0  0
    7.1447   -6.6000    0.0000 O   0  0  0  0  0  0  0  0  0  0  0  0
    8.5737   -6.6000    0.0000 C   0  0  0  0  0  0  0  0  0  0  0  0
    9.3273   -6.2644    0.0000 C   0  0  0  0  0  0  0  0  0  0  0  0
    9.8794   -6.8775    0.0000 C   0  0  0  0  0  0  0  0  0  0  0  0
    9.4669   -7.5920    0.0000 S   0  0  0  0  0  0  0  0  0  0  0  0
    8.6599   -7.4205    0.0000 C   0  0  0  0  0  0  0  0  0  0  0  0
    6.4302   -2.8875    0.0000 C   0  0  0  0  0  0  0  0  0  0  0  0
    5.7158   -2.4750    0.0000 C   0  0  0  0  0  0  0  0  0  0  0  0
    2.8579   -1.6500    0.0000 C   0  0  0  0  0  0  0  0  0  0  0  0
    2.1434   -1.2375    0.0000 C   0  0  0  0  0  0  0  0  0  0  0  0
    1.4289   -1.6500    0.0000 C   0  0  0  0  0  0  0  0  0  0  0  0
    0.7145   -1.2375    0.0000 C   0  0  0  0  0  0  0  0  0  0  0  0
    0.0000   -1.6500    0.0000 O   0  0  0  0  0  0  0  0  0  0  0  0
   -0.7145   -1.2375    0.0000 C   0  0  0  0  0  0  0  0  0  0  0  0
  1  2  1  0  0  0  0
  2  3  1  0  0  0  0
  3  4  2  0  0  0  0
  3 37  1  0  0  0  0
  4  5  1  0  0  0  0
  5  6  1  0  0  0  0
  5 35  2  0  0  0  0
  6  7  1  0  0  0  0
  7  8  1  0  0  0  0
  8  9  1  0  0  0  0
  8 34  1  0  0  0  0
  9 10  1  0  0  0  0
 10 11  1  0  0  0  0
 11 12  2  0  0  0  0
 11 33  1  0  0  0  0
 12 13  1  0  0  0  0
 13 14  2  0  0  0  0
 14 15  1  0  0  0  0
 14 32  1  0  0  0  0
 15 16  1  0  0  0  0
 16 17  2  0  0  0  0
 16 18  1  0  0  0  0
 18 19  2  0  0  0  0
 18 23  1  0  0  0  0
 19 20  1  0  0  0  0
 20 21  2  0  0  0  0
 21 22  1  0  0  0  0
 22 23  2  0  0  0  0
 23 24  1  0  0  0  0
 24 25  1  0  0  0  0
 25 26  2  0  0  0  0
 25 27  1  0  0  0  0
 27 28  1  0  0  0  0
 27 31  2  0  0  0  0
 28 29  2  0  0  0  0
 29 30  1  0  0  0  0
 30 31  1  0  0  0  0
 32 33  2  0  0  0  0
 34 35  1  0  0  0  0
 35 36  1  0  0  0  0
 36 37  2  0  0  0  0
 37 38  1  0  0  0  0
 38 39  1  0  0  0  0
M  END
$$$$

 OpenBabel12191814062D

 44 49  0  0  0  0  0  0  0  0999 V2000
    7.1447   -6.6000    0.0000 C   0  0  0  0  0  0  0  0  0  0  0  0
    7.8592   -6.1875    0.0000 O   0  0  0  0  0  0  0  0  0  0  0  0
    8.5737   -6.6000    0.0000 C   0  0  0  0  0  0  0  0  0  0  0  0
    9.2881   -6.1875    0.0000 C   0  0  0  0  0  0  0  0  0  0  0  0
   10.0026   -6.6000    0.0000 C   0  0  0  0  0  0  0  0  0  0  0  0
   10.7171   -6.1875    0.0000 C   0  0  0  0  0  0  0  0  0  0  0  0
   11.4315   -6.6000    0.0000 C   0  0  0  0  0  0  0  0  0  0  0  0
   11.4315   -7.4250    0.0000 N   0  0  0  0  0  0  0  0  0  0  0  0
   12.1460   -7.8375    0.0000 C   0  0  0  0  0  0  0  0  0  0  0  0
   12.8605   -7.4250    0.0000 C   0  0  0  0  0  0  0  0  0  0  0  0
   13.5749   -7.8375    0.0000 C   0  0  0  0  0  0  0  0  0  0  0  0
   14.2894   -7.4250    0.0000 C   0  0  0  0  0  0  0  0  0  0  0  0
   15.0039   -7.8375    0.0000 C   0  0  0  0  0  0  0  0  0  0  0  0
   15.0039   -8.6625    0.0000 C   0  0  0  0  0  0  0  0  0  0  0  0
   15.7184   -9.0750    0.0000 N   0  0  0  0  0  0  0  0  0  0  0  0
   15.7184   -9.9000    0.0000 C   0  0  0  0  0  0  0  0  0  0  0  0
   15.0039  -10.3125    0.0000 O   0  0  0  0  0  0  0  0  0  0  0  0
   16.4328  -10.3125    0.0000 C   0  0  0  0  0  0  0  0  0  0  0  0
   17.1473   -9.9000    0.0000 C   0  0  0  0  0  0  0  0  0  0  0  0
   17.8618  -10.3125    0.0000 C   0  0  0  0  0  0  0  0  0  0  0  0
   17.8618  -11.1375    0.0000 C   0  0  0  0  0  0  0  0  0  0  0  0
   17.1473  -11.5500    0.0000 C   0  0  0  0  0  0  0  0  0  0  0  0
   16.4328  -11.1375    0.0000 C   0  0  0  0  0  0  0  0  0  0  0  0
   15.7184  -11.5500    0.0000 N   0  0  0  0  0  0  0  0  0  0  0  0
   15.7184  -12.3750    0.0000 C   0  0  0  0  0  0  0  0  0  0  0  0
   15.0039  -12.7875    0.0000 O   0  0  0  0  0  0  0  0  0  0  0  0
   16.4328  -12.7875    0.0000 C   0  0  0  0  0  0  0  0  0  0  0  0
   17.1473  -12.3750    0.0000 C   0  0  0  0  0  0  0  0  0  0  0  0
   17.8618  -12.7875    0.0000 N   0  0  0  0  0  0  0  0  0  0  0  0
   17.8618  -13.6125    0.0000 C   0  0  0  0  0  0  0  0  0  0  0  0
   18.5762  -14.0250    0.0000 C   0  0  0  0  0  0  0  0  0  0  0  0
   18.5762  -14.8500    0.0000 C   0  0  0  0  0  0  0  0  0  0  0  0
   17.8618  -15.2625    0.0000 C   0  0  0  0  0  0  0  0  0  0  0  0
   17.1473  -14.8500    0.0000 C   0  0  0  0  0  0  0  0  0  0  0  0
   17.1473  -14.0250    0.0000 C   0  0  0  0  0  0  0  0  0  0  0  0
   16.4328  -13.6125    0.0000 C   0  0  0  0  0  0  0  0  0  0  0  0
   14.2894   -9.0750    0.0000 C   0  0  0  0  0  0  0  0  0  0  0  0
   13.5749   -8.6625    0.0000 C   0  0  0  0  0  0  0  0  0  0  0  0
   10.7171   -7.8375    0.0000 C   0  0  0  0  0  0  0  0  0  0  0  0
   10.0026   -7.4250    0.0000 C   0  0  0  0  0  0  0  0  0  0  0  0
    9.2881   -7.8375    0.0000 C   0  0  0  0  0  0  0  0  0  0  0  0
    8.5737   -7.4250    0.0000 C   0  0  0  0  0  0  0  0  0  0  0  0
    7.8592   -7.8375    0.0000 O   0  0  0  0  0  0  0  0  0  0  0  0
    7.1447   -7.4250    0.0000 C   0  0  0  0  0  0  0  0  0  0  0  0
  1  2  1  0  0  0  0
  2  3  1  0  0  0  0
  3  4  2  0  0  0  0
  3 42  1  0  0  0  0
  4  5  1  0  0  0  0
  5  6  1  0  0  0  0
  5 40  2  0  0  0  0
  6  7  1  0  0  0  0
  7  8  1  0  0  0  0
  8  9  1  0  0  0  0
  8 39  1  0  0  0  0
  9 10  1  0  0  0  0
 10 11  1  0  0  0  0
 11 12  2  0  0  0  0
 11 38  1  0  0  0  0
 12 13  1  0  0  0  0
 13 14  2  0  0  0  0
 14 15  1  0  0  0  0
 14 37  1  0  0  0  0
 15 16  1  0  0  0  0
 16 17  2  0  0  0  0
 16 18  1  0  0  0  0
 18 19  2  0  0  0  0
 18 23  1  0  0  0  0
 19 20  1  0  0  0  0
 20 21  2  0  0  0  0
 21 22  1  0  0  0  0
 22 23  2  0  0  0  0
 23 24  1  0  0  0  0
 24 25  1  0  0  0  0
 25 26  2  0  0  0  0
 25 27  1  0  0  0  0
 27 28  2  0  0  0  0
 27 36  1  0  0  0  0
 28 29  1  0  0  0  0
 29 30  2  0  0  0  0
 30 31  1  0  0  0  0
 30 35  1  0  0  0  0
 31 32  2  0  0  0  0
 32 33  1  0  0  0  0
 33 34  2  0  0  0  0
 34 35  1  0  0  0  0
 35 36  2  0  0  0  0
 37 38  2  0  0  0  0
 39 40  1  0  0  0  0
 40 41  1  0  0  0  0
 41 42  2  0  0  0  0
 42 43  1  0  0  0  0
 43 44  1  0  0  0  0
M  END
$$$$

 OpenBabel12191814062D

 44 49  0  0  0  0  0  0  0  0999 V2000
    7.1447   -6.6000    0.0000 C   0  0  0  0  0  0  0  0  0  0  0  0
    7.8592   -6.1875    0.0000 O   0  0  0  0  0  0  0  0  0  0  0  0
    8.5737   -6.6000    0.0000 C   0  0  0  0  0  0  0  0  0  0  0  0
    9.2881   -6.1875    0.0000 C   0  0  0  0  0  0  0  0  0  0  0  0
   10.0026   -6.6000    0.0000 C   0  0  0  0  0  0  0  0  0  0  0  0
   10.7171   -6.1875    0.0000 C   0  0  0  0  0  0  0  0  0  0  0  0
   11.4315   -6.6000    0.0000 C   0  0  0  0  0  0  0  0  0  0  0  0
   11.4315   -7.4250    0.0000 N   0  0  0  0  0  0  0  0  0  0  0  0
   12.1460   -7.8375    0.0000 C   0  0  0  0  0  0  0  0  0  0  0  0
   12.8605   -7.4250    0.0000 C   0  0  0  0  0  0  0  0  0  0  0  0
   13.5749   -7.8375    0.0000 C   0  0  0  0  0  0  0  0  0  0  0  0
   14.2894   -7.4250    0.0000 C   0  0  0  0  0  0  0  0  0  0  0  0
   15.0039   -7.8375    0.0000 C   0  0  0  0  0  0  0  0  0  0  0  0
   15.0039   -8.6625    0.0000 C   0  0  0  0  0  0  0  0  0  0  0  0
   15.7184   -9.0750    0.0000 N   0  0  0  0  0  0  0  0  0  0  0  0
   15.7184   -9.9000    0.0000 C   0  0  0  0  0  0  0  0  0  0  0  0
   15.0039  -10.3125    0.0000 O   0  0  0  0  0  0  0  0  0  0  0  0
   16.4328  -10.3125    0.0000 C   0  0  0  0  0  0  0  0  0  0  0  0
   17.1473   -9.9000    0.0000 C   0  0  0  0  0  0  0  0  0  0  0  0
   17.8618  -10.3125    0.0000 C   0  0  0  0  0  0  0  0  0  0  0  0
   17.8618  -11.1375    0.0000 C   0  0  0  0  0  0  0  0  0  0  0  0
   17.1473  -11.5500    0.0000 C   0  0  0  0  0  0  0  0  0  0  0  0
   16.4328  -11.1375    0.0000 C   0  0  0  0  0  0  0  0  0  0  0  0
   15.7184  -11.5500    0.0000 N   0  0  0  0  0  0  0  0  0  0  0  0
   15.7184  -12.3750    0.0000 C   0  0  0  0  0  0  0  0  0  0  0  0
   15.0039  -12.7875    0.0000 O   0  0  0  0  0  0  0  0  0  0  0  0
   16.4328  -12.7875    0.0000 C   0  0  0  0  0  0  0  0  0  0  0  0
   17.1473  -12.3750    0.0000 C   0  0  0  0  0  0  0  0  0  0  0  0
   17.8618  -12.7875    0.0000 N   0  0  0  0  0  0  0  0  0  0  0  0
   17.8618  -13.6125    0.0000 C   0  0  0  0  0  0  0  0  0  0  0  0
   18.5762  -14.0250    0.0000 C   0  0  0  0  0  0  0  0  0  0  0  0
   18.5762  -14.8500    0.0000 C   0  0  0  0  0  0  0  0  0  0  0  0
   17.8618  -15.2625    0.0000 C   0  0  0  0  0  0  0  0  0  0  0  0
   17.1473  -14.8500    0.0000 C   0  0  0  0  0  0  0  0  0  0  0  0
   17.1473  -14.0250    0.0000 C   0  0  0  0  0  0  0  0  0  0  0  0
   16.4328  -13.6125    0.0000 C   0  0  0  0  0  0  0  0  0  0  0  0
   14.2894   -9.0750    0.0000 C   0  0  0  0  0  0  0  0  0  0  0  0
   13.5749   -8.6625    0.0000 C   0  0  0  0  0  0  0  0  0  0  0  0
   10.7171   -7.8375    0.0000 C   0  0  0  0  0  0  0  0  0  0  0  0
   10.0026   -7.4250    0.0000 C   0  0  0  0  0  0  0  0  0  0  0  0
    9.2881   -7.8375    0.0000 C   0  0  0  0  0  0  0  0  0  0  0  0
    8.5737   -7.4250    0.0000 C   0  0  0  0  0  0  0  0  0  0  0  0
    7.8592   -7.8375    0.0000 O   0  0  0  0  0  0  0  0  0  0  0  0
    7.1447   -7.4250    0.0000 C   0  0  0  0  0  0  0  0  0  0  0  0
  1  2  1  0  0  0  0
  2  3  1  0  0  0  0
  3  4  2  0  0  0  0
  3 42  1  0  0  0  0
  4  5  1  0  0  0  0
  5  6  1  0  0  0  0
  5 40  2  0  0  0  0
  6  7  1  0  0  0  0
  7  8  1  0  0  0  0
  8  9  1  0  0  0  0
  8 39  1  0  0  0  0
  9 10  1  0  0  0  0
 10 11  1  0  0  0  0
 11 12  2  0  0  0  0
 11 38  1  0  0  0  0
 12 13  1  0  0  0  0
 13 14  2  0  0  0  0
 14 15  1  0  0  0  0
 14 37  1  0  0  0  0
 15 16  1  0  0  0  0
 16 17  2  0  0  0  0
 16 18  1  0  0  0  0
 18 19  2  0  0  0  0
 18 23  1  0  0  0  0
 19 20  1  0  0  0  0
 20 21  2  0  0  0  0
 21 22  1  0  0  0  0
 22 23  2  0  0  0  0
 23 24  1  0  0  0  0
 24 25  1  0  0  0  0
 25 26  2  0  0  0  0
 25 27  1  0  0  0  0
 27 28  2  0  0  0  0
 27 36  1  0  0  0  0
 28 29  1  0  0  0  0
 29 30  2  0  0  0  0
 30 31  1  0  0  0  0
 30 35  1  0  0  0  0
 31 32  1  0  0  0  0
 32 33  1  0  0  0  0
 33 34  1  0  0  0  0
 34 35  1  0  0  0  0
 35 36  2  0  0  0  0
 37 38  2  0  0  0  0
 39 40  1  0  0  0  0
 40 41  1  0  0  0  0
 41 42  2  0  0  0  0
 42 43  1  0  0  0  0
 43 44  1  0  0  0  0
M  END
$$$$

 OpenBabel12191814062D

 44 49  0  0  0  0  0  0  0  0999 V2000
    7.1447   -6.6000    0.0000 C   0  0  0  0  0  0  0  0  0  0  0  0
    7.8592   -6.1875    0.0000 O   0  0  0  0  0  0  0  0  0  0  0  0
    8.5737   -6.6000    0.0000 C   0  0  0  0  0  0  0  0  0  0  0  0
    9.2881   -6.1875    0.0000 C   0  0  0  0  0  0  0  0  0  0  0  0
   10.0026   -6.6000    0.0000 C   0  0  0  0  0  0  0  0  0  0  0  0
   10.7171   -6.1875    0.0000 C   0  0  0  0  0  0  0  0  0  0  0  0
   11.4315   -6.6000    0.0000 C   0  0  0  0  0  0  0  0  0  0  0  0
   11.4315   -7.4250    0.0000 N   0  0  0  0  0  0  0  0  0  0  0  0
   12.1460   -7.8375    0.0000 C   0  0  0  0  0  0  0  0  0  0  0  0
   12.8605   -7.4250    0.0000 C   0  0  0  0  0  0  0  0  0  0  0  0
   13.5749   -7.8375    0.0000 C   0  0  0  0  0  0  0  0  0  0  0  0
   14.2894   -7.4250    0.0000 C   0  0  0  0  0  0  0  0  0  0  0  0
   15.0039   -7.8375    0.0000 C   0  0  0  0  0  0  0  0  0  0  0  0
   15.0039   -8.6625    0.0000 C   0  0  0  0  0  0  0  0  0  0  0  0
   15.7184   -9.0750    0.0000 N   0  0  0  0  0  0  0  0  0  0  0  0
   15.7184   -9.9000    0.0000 C   0  0  0  0  0  0  0  0  0  0  0  0
   15.0039  -10.3125    0.0000 O   0  0  0  0  0  0  0  0  0  0  0  0
   16.4328  -10.3125    0.0000 C   0  0  0  0  0  0  0  0  0  0  0  0
   17.1473   -9.9000    0.0000 C   0  0  0  0  0  0  0  0  0  0  0  0
   17.8618  -10.3125    0.0000 C   0  0  0  0  0  0  0  0  0  0  0  0
   17.8618  -11.1375    0.0000 C   0  0  0  0  0  0  0  0  0  0  0  0
   17.1473  -11.5500    0.0000 C   0  0  0  0  0  0  0  0  0  0  0  0
   16.4328  -11.1375    0.0000 C   0  0  0  0  0  0  0  0  0  0  0  0
   15.7184  -11.5500    0.0000 N   0  0  0  0  0  0  0  0  0  0  0  0
   15.7184  -12.3750    0.0000 C   0  0  0  0  0  0  0  0  0  0  0  0
   15.0039  -12.7875    0.0000 O   0  0  0  0  0  0  0  0  0  0  0  0
   16.4328  -12.7875    0.0000 C   0  0  0  0  0  0  0  0  0  0  0  0
   17.1473  -12.3750    0.0000 C   0  0  0  0  0  0  0  0  0  0  0  0
   17.8618  -12.7875    0.0000 N   0  0  0  0  0  0  0  0  0  0  0  0
   17.8618  -13.6125    0.0000 C   0  0  0  0  0  0  0  0  0  0  0  0
   18.5762  -14.0250    0.0000 C   0  0  0  0  0  0  0  0  0  0  0  0
   18.5762  -14.8500    0.0000 C   0  0  0  0  0  0  0  0  0  0  0  0
   17.8618  -15.2625    0.0000 C   0  0  0  0  0  0  0  0  0  0  0  0
   17.1473  -14.8500    0.0000 C   0  0  0  0  0  0  0  0  0  0  0  0
   17.1473  -14.0250    0.0000 C   0  0  0  0  0  0  0  0  0  0  0  0
   16.4328  -13.6125    0.0000 C   0  0  0  0  0  0  0  0  0  0  0  0
   14.2894   -9.0750    0.0000 C   0  0  0  0  0  0  0  0  0  0  0  0
   13.5749   -8.6625    0.0000 C   0  0  0  0  0  0  0  0  0  0  0  0
   10.7171   -7.8375    0.0000 C   0  0  0  0  0  0  0  0  0  0  0  0
   10.0026   -7.4250    0.0000 C   0  0  0  0  0  0  0  0  0  0  0  0
    9.2881   -7.8375    0.0000 C   0  0  0  0  0  0  0  0  0  0  0  0
    8.5737   -7.4250    0.0000 C   0  0  0  0  0  0  0  0  0  0  0  0
    7.8592   -7.8375    0.0000 O   0  0  0  0  0  0  0  0  0  0  0  0
    7.1447   -7.4250    0.0000 C   0  0  0  0  0  0  0  0  0  0  0  0
  1  2  1  0  0  0  0
  2  3  1  0  0  0  0
  3  4  2  0  0  0  0
  3 42  1  0  0  0  0
  4  5  1  0  0  0  0
  5  6  1  0  0  0  0
  5 40  2  0  0  0  0
  6  7  1  0  0  0  0
  7  8  1  0  0  0  0
  8  9  1  0  0  0  0
  8 39  1  0  0  0  0
  9 10  1  0  0  0  0
 10 11  1  0  0  0  0
 11 12  2  0  0  0  0
 11 38  1  0  0  0  0
 12 13  1  0  0  0  0
 13 14  2  0  0  0  0
 14 15  1  0  0  0  0
 14 37  1  0  0  0  0
 15 16  1  0  0  0  0
 16 17  2  0  0  0  0
 16 18  1  0  0  0  0
 18 19  2  0  0  0  0
 18 23  1  0  0  0  0
 19 20  1  0  0  0  0
 20 21  2  0  0  0  0
 21 22  1  0  0  0  0
 22 23  2  0  0  0  0
 23 24  1  0  0  0  0
 24 25  1  0  0  0  0
 25 26  2  0  0  0  0
 25 27  1  0  0  0  0
 27 28  2  0  0  0  0
 27 36  1  0  0  0  0
 28 29  1  0  0  0  0
 29 30  2  0  0  0  0
 30 31  1  0  0  0  0
 30 35  1  0  0  0  0
 31 32  2  0  0  0  0
 32 33  1  0  0  0  0
 33 34  2  0  0  0  0
 34 35  1  0  0  0  0
 35 36  2  0  0  0  0
 37 38  2  0  0  0  0
 39 40  1  0  0  0  0
 40 41  1  0  0  0  0
 41 42  2  0  0  0  0
 42 43  1  0  0  0  0
 43 44  1  0  0  0  0
M  END
$$$$

 OpenBabel12191814062D

 40 44  0  0  0  0  0  0  0  0999 V2000
   -0.7145   -0.4125    0.0000 C   0  0  0  0  0  0  0  0  0  0  0  0
    0.0000    0.0000    0.0000 O   0  0  0  0  0  0  0  0  0  0  0  0
    0.7145   -0.4125    0.0000 C   0  0  0  0  0  0  0  0  0  0  0  0
    1.4289    0.0000    0.0000 C   0  0  0  0  0  0  0  0  0  0  0  0
    2.1434   -0.4125    0.0000 C   0  0  0  0  0  0  0  0  0  0  0  0
    2.8579    0.0000    0.0000 C   0  0  0  0  0  0  0  0  0  0  0  0
    3.5724   -0.4125    0.0000 C   0  0  0  0  0  0  0  0  0  0  0  0
    3.5724   -1.2375    0.0000 N   0  0  0  0  0  0  0  0  0  0  0  0
    4.2868   -1.6500    0.0000 C   0  0  0  0  0  0  0  0  0  0  0  0
    5.0013   -1.2375    0.0000 C   0  0  0  0  0  0  0  0  0  0  0  0
    5.7158   -1.6500    0.0000 C   0  0  0  0  0  0  0  0  0  0  0  0
    6.4302   -1.2375    0.0000 C   0  0  0  0  0  0  0  0  0  0  0  0
    7.1447   -1.6500    0.0000 C   0  0  0  0  0  0  0  0  0  0  0  0
    7.1447   -2.4750    0.0000 C   0  0  0  0  0  0  0  0  0  0  0  0
    7.8592   -2.8875    0.0000 N   0  0  0  0  0  0  0  0  0  0  0  0
    7.8592   -3.7125    0.0000 C   0  0  0  0  0  0  0  0  0  0  0  0
    7.1447   -4.1250    0.0000 O   0  0  0  0  0  0  0  0  0  0  0  0
    8.5737   -4.1250    0.0000 C   0  0  0  0  0  0  0  0  0  0  0  0
    9.2881   -3.7125    0.0000 C   0  0  0  0  0  0  0  0  0  0  0  0
   10.0026   -4.1250    0.0000 C   0  0  0  0  0  0  0  0  0  0  0  0
   10.0026   -4.9500    0.0000 C   0  0  0  0  0  0  0  0  0  0  0  0
    9.2881   -5.3625    0.0000 C   0  0  0  0  0  0  0  0  0  0  0  0
    8.5737   -4.9500    0.0000 C   0  0  0  0  0  0  0  0  0  0  0  0
    7.8592   -5.3625    0.0000 N   0  0  0  0  0  0  0  0  0  0  0  0
    7.8592   -6.1875    0.0000 C   0  0  0  0  0  0  0  0  0  0  0  0
    7.1447   -6.6000    0.0000 O   0  0  0  0  0  0  0  0  0  0  0  0
    8.5737   -6.6000    0.0000 C   0  0  0  0  0  0  0  0  0  0  0  0
    9.2881   -6.1875    0.0000 C   0  0  0  0  0  0  0  0  0  0  0  0
   10.0026   -6.6000    0.0000 N   0  0  0  0  0  0  0  0  0  0  0  0
   10.0026   -7.4250    0.0000 C   0  0  0  0  0  0  0  0  0  0  0  0
    9.2881   -7.8375    0.0000 C   0  0  0  0  0  0  0  0  0  0  0  0
    8.5737   -7.4250    0.0000 N   0  0  0  0  0  0  0  0  0  0  0  0
    6.4302   -2.8875    0.0000 C   0  0  0  0  0  0  0  0  0  0  0  0
    5.7158   -2.4750    0.0000 C   0  0  0  0  0  0  0  0  0  0  0  0
    2.8579   -1.6500    0.0000 C   0  0  0  0  0  0  0  0  0  0  0  0
    2.1434   -1.2375    0.0000 C   0  0  0  0  0  0  0  0  0  0  0  0
    1.4289   -1.6500    0.0000 C   0  0  0  0  0  0  0  0  0  0  0  0
    0.7145   -1.2375    0.0000 C   0  0  0  0  0  0  0  0  0  0  0  0
    0.0000   -1.6500    0.0000 O   0  0  0  0  0  0  0  0  0  0  0  0
   -0.7145   -1.2375    0.0000 C   0  0  0  0  0  0  0  0  0  0  0  0
  1  2  1  0  0  0  0
  2  3  1  0  0  0  0
  3  4  2  0  0  0  0
  3 38  1  0  0  0  0
  4  5  1  0  0  0  0
  5  6  1  0  0  0  0
  5 36  2  0  0  0  0
  6  7  1  0  0  0  0
  7  8  1  0  0  0  0
  8  9  1  0  0  0  0
  8 35  1  0  0  0  0
  9 10  1  0  0  0  0
 10 11  1  0  0  0  0
 11 12  2  0  0  0  0
 11 34  1  0  0  0  0
 12 13  1  0  0  0  0
 13 14  2  0  0  0  0
 14 15  1  0  0  0  0
 14 33  1  0  0  0  0
 15 16  1  0  0  0  0
 16 17  2  0  0  0  0
 16 18  1  0  0  0  0
 18 19  2  0  0  0  0
 18 23  1  0  0  0  0
 19 20  1  0  0  0  0
 20 21  2  0  0  0  0
 21 22  1  0  0  0  0
 22 23  2  0  0  0  0
 23 24  1  0  0  0  0
 24 25  1  0  0  0  0
 25 26  2  0  0  0  0
 25 27  1  0  0  0  0
 27 28  2  0  0  0  0
 27 32  1  0  0  0  0
 28 29  1  0  0  0  0
 29 30  2  0  0  0  0
 30 31  1  0  0  0  0
 31 32  2  0  0  0  0
 33 34  2  0  0  0  0
 35 36  1  0  0  0  0
 36 37  1  0  0  0  0
 37 38  2  0  0  0  0
 38 39  1  0  0  0  0
 39 40  1  0  0  0  0
M  END
$$$$

 OpenBabel12191814062D

 40 44  0  0  0  0  0  0  0  0999 V2000
   -0.7145   -0.4125    0.0000 C   0  0  0  0  0  0  0  0  0  0  0  0
    0.0000    0.0000    0.0000 O   0  0  0  0  0  0  0  0  0  0  0  0
    0.7145   -0.4125    0.0000 C   0  0  0  0  0  0  0  0  0  0  0  0
    1.4289    0.0000    0.0000 C   0  0  0  0  0  0  0  0  0  0  0  0
    2.1434   -0.4125    0.0000 C   0  0  0  0  0  0  0  0  0  0  0  0
    2.8579    0.0000    0.0000 C   0  0  0  0  0  0  0  0  0  0  0  0
    3.5724   -0.4125    0.0000 C   0  0  0  0  0  0  0  0  0  0  0  0
    3.5724   -1.2375    0.0000 N   0  0  0  0  0  0  0  0  0  0  0  0
    4.2868   -1.6500    0.0000 C   0  0  0  0  0  0  0  0  0  0  0  0
    5.0013   -1.2375    0.0000 C   0  0  0  0  0  0  0  0  0  0  0  0
    5.7158   -1.6500    0.0000 C   0  0  0  0  0  0  0  0  0  0  0  0
    6.4302   -1.2375    0.0000 C   0  0  0  0  0  0  0  0  0  0  0  0
    7.1447   -1.6500    0.0000 C   0  0  0  0  0  0  0  0  0  0  0  0
    7.1447   -2.4750    0.0000 C   0  0  0  0  0  0  0  0  0  0  0  0
    7.8592   -2.8875    0.0000 N   0  0  0  0  0  0  0  0  0  0  0  0
    7.8592   -3.7125    0.0000 C   0  0  0  0  0  0  0  0  0  0  0  0
    7.1447   -4.1250    0.0000 O   0  0  0  0  0  0  0  0  0  0  0  0
    8.5737   -4.1250    0.0000 C   0  0  0  0  0  0  0  0  0  0  0  0
    9.2881   -3.7125    0.0000 C   0  0  0  0  0  0  0  0  0  0  0  0
   10.0026   -4.1250    0.0000 C   0  0  0  0  0  0  0  0  0  0  0  0
   10.0026   -4.9500    0.0000 C   0  0  0  0  0  0  0  0  0  0  0  0
    9.2881   -5.3625    0.0000 C   0  0  0  0  0  0  0  0  0  0  0  0
    8.5737   -4.9500    0.0000 C   0  0  0  0  0  0  0  0  0  0  0  0
    7.8592   -5.3625    0.0000 N   0  0  0  0  0  0  0  0  0  0  0  0
    7.8592   -6.1875    0.0000 C   0  0  0  0  0  0  0  0  0  0  0  0
    7.1447   -6.6000    0.0000 O   0  0  0  0  0  0  0  0  0  0  0  0
    8.5737   -6.6000    0.0000 C   0  0  0  0  0  0  0  0  0  0  0  0
    9.3273   -6.2644    0.0000 C   0  0  0  0  0  0  0  0  0  0  0  0
    9.8794   -6.8775    0.0000 S   0  0  0  0  0  0  0  0  0  0  0  0
    9.4669   -7.5920    0.0000 C   0  0  0  0  0  0  0  0  0  0  0  0
    9.8024   -8.3457    0.0000 C   0  0  0  0  0  0  0  0  0  0  0  0
    8.6599   -7.4205    0.0000 N   0  0  0  0  0  0  0  0  0  0  0  0
    6.4302   -2.8875    0.0000 C   0  0  0  0  0  0  0  0  0  0  0  0
    5.7158   -2.4750    0.0000 C   0  0  0  0  0  0  0  0  0  0  0  0
    2.8579   -1.6500    0.0000 C   0  0  0  0  0  0  0  0  0  0  0  0
    2.1434   -1.2375    0.0000 C   0  0  0  0  0  0  0  0  0  0  0  0
    1.4289   -1.6500    0.0000 C   0  0  0  0  0  0  0  0  0  0  0  0
    0.7145   -1.2375    0.0000 C   0  0  0  0  0  0  0  0  0  0  0  0
    0.0000   -1.6500    0.0000 O   0  0  0  0  0  0  0  0  0  0  0  0
   -0.7145   -1.2375    0.0000 C   0  0  0  0  0  0  0  0  0  0  0  0
  1  2  1  0  0  0  0
  2  3  1  0  0  0  0
  3  4  2  0  0  0  0
  3 38  1  0  0  0  0
  4  5  1  0  0  0  0
  5  6  1  0  0  0  0
  5 36  2  0  0  0  0
  6  7  1  0  0  0  0
  7  8  1  0  0  0  0
  8  9  1  0  0  0  0
  8 35  1  0  0  0  0
  9 10  1  0  0  0  0
 10 11  1  0  0  0  0
 11 12  2  0  0  0  0
 11 34  1  0  0  0  0
 12 13  1  0  0  0  0
 13 14  2  0  0  0  0
 14 15  1  0  0  0  0
 14 33  1  0  0  0  0
 15 16  1  0  0  0  0
 16 17  2  0  0  0  0
 16 18  1  0  0  0  0
 18 19  2  0  0  0  0
 18 23  1  0  0  0  0
 19 20  1  0  0  0  0
 20 21  2  0  0  0  0
 21 22  1  0  0  0  0
 22 23  2  0  0  0  0
 23 24  1  0  0  0  0
 24 25  1  0  0  0  0
 25 26  2  0  0  0  0
 25 27  1  0  0  0  0
 27 28  2  0  0  0  0
 27 32  1  0  0  0  0
 28 29  1  0  0  0  0
 29 30  1  0  0  0  0
 30 31  1  0  0  0  0
 30 32  2  0  0  0  0
 33 34  2  0  0  0  0
 35 36  1  0  0  0  0
 36 37  1  0  0  0  0
 37 38  2  0  0  0  0
 38 39  1  0  0  0  0
 39 40  1  0  0  0  0
M  END
$$$$

 OpenBabel12191814062D

 31 34  0  0  0  0  0  0  0  0999 V2000
   -0.7145   -0.4125    0.0000 C   0  0  0  0  0  0  0  0  0  0  0  0
    0.0000    0.0000    0.0000 O   0  0  0  0  0  0  0  0  0  0  0  0
    0.7145   -0.4125    0.0000 C   0  0  0  0  0  0  0  0  0  0  0  0
    1.4289    0.0000    0.0000 C   0  0  0  0  0  0  0  0  0  0  0  0
    2.1434   -0.4125    0.0000 C   0  0  0  0  0  0  0  0  0  0  0  0
    2.8579    0.0000    0.0000 C   0  0  0  0  0  0  0  0  0  0  0  0
    3.5724   -0.4125    0.0000 C   0  0  0  0  0  0  0  0  0  0  0  0
    3.5724   -1.2375    0.0000 N   0  0  0  0  0  0  0  0  0  0  0  0
    4.2868   -1.6500    0.0000 C   0  0  0  0  0  0  0  0  0  0  0  0
    5.0013   -1.2375    0.0000 C   0  0  0  0  0  0  0  0  0  0  0  0
    5.7158   -1.6500    0.0000 C   0  0  0  0  0  0  0  0  0  0  0  0
    6.4302   -1.2375    0.0000 C   0  0  0  0  0  0  0  0  0  0  0  0
    7.1447   -1.6500    0.0000 C   0  0  0  0  0  0  0  0  0  0  0  0
    7.1447   -2.4750    0.0000 C   0  0  0  0  0  0  0  0  0  0  0  0
    7.8592   -2.8875    0.0000 N   0  0  0  0  0  0  0  0  0  0  0  0
    8.5737   -2.4750    0.0000 C   0  0  0  0  0  0  0  0  0  0  0  0
    8.5737   -1.6500    0.0000 O   0  0  0  0  0  0  0  0  0  0  0  0
    9.2881   -2.8875    0.0000 C   0  0  0  0  0  0  0  0  0  0  0  0
   10.0026   -2.4750    0.0000 C   0  0  0  0  0  0  0  0  0  0  0  0
   10.7171   -2.8875    0.0000 C   0  0  0  0  0  0  0  0  0  0  0  0
   10.7171   -3.7125    0.0000 C   0  0  0  0  0  0  0  0  0  0  0  0
   10.0026   -4.1250    0.0000 N   0  0  0  0  0  0  0  0  0  0  0  0
    9.2881   -3.7125    0.0000 C   0  0  0  0  0  0  0  0  0  0  0  0
    6.4302   -2.8875    0.0000 C   0  0  0  0  0  0  0  0  0  0  0  0
    5.7158   -2.4750    0.0000 C   0  0  0  0  0  0  0  0  0  0  0  0
    2.8579   -1.6500    0.0000 C   0  0  0  0  0  0  0  0  0  0  0  0
    2.1434   -1.2375    0.0000 C   0  0  0  0  0  0  0  0  0  0  0  0
    1.4289   -1.6500    0.0000 C   0  0  0  0  0  0  0  0  0  0  0  0
    0.7145   -1.2375    0.0000 C   0  0  0  0  0  0  0  0  0  0  0  0
    0.0000   -1.6500    0.0000 O   0  0  0  0  0  0  0  0  0  0  0  0
   -0.7145   -1.2375    0.0000 C   0  0  0  0  0  0  0  0  0  0  0  0
  1  2  1  0  0  0  0
  2  3  1  0  0  0  0
  3  4  2  0  0  0  0
  3 29  1  0  0  0  0
  4  5  1  0  0  0  0
  5  6  1  0  0  0  0
  5 27  2  0  0  0  0
  6  7  1  0  0  0  0
  7  8  1  0  0  0  0
  8  9  1  0  0  0  0
  8 26  1  0  0  0  0
  9 10  1  0  0  0  0
 10 11  1  0  0  0  0
 11 12  2  0  0  0  0
 11 25  1  0  0  0  0
 12 13  1  0  0  0  0
 13 14  2  0  0  0  0
 14 15  1  0  0  0  0
 14 24  1  0  0  0  0
 15 16  1  0  0  0  0
 16 17  2  0  0  0  0
 16 18  1  0  0  0  0
 18 19  2  0  0  0  0
 18 23  1  0  0  0  0
 19 20  1  0  0  0  0
 20 21  2  0  0  0  0
 21 22  1  0  0  0  0
 22 23  2  0  0  0  0
 24 25  2  0  0  0  0
 26 27  1  0  0  0  0
 27 28  1  0  0  0  0
 28 29  2  0  0  0  0
 29 30  1  0  0  0  0
 30 31  1  0  0  0  0
M  END
$$$$

 OpenBabel12191814062D

 35 39  0  0  0  0  0  0  0  0999 V2000
    2.8579   -6.6000    0.0000 C   0  0  0  0  0  0  0  0  0  0  0  0
    3.5724   -6.1875    0.0000 O   0  0  0  0  0  0  0  0  0  0  0  0
    4.2868   -6.6000    0.0000 C   0  0  0  0  0  0  0  0  0  0  0  0
    5.0013   -6.1875    0.0000 C   0  0  0  0  0  0  0  0  0  0  0  0
    5.7158   -6.6000    0.0000 C   0  0  0  0  0  0  0  0  0  0  0  0
    6.4302   -6.1875    0.0000 C   0  0  0  0  0  0  0  0  0  0  0  0
    7.1447   -6.6000    0.0000 C   0  0  0  0  0  0  0  0  0  0  0  0
    7.1447   -7.4250    0.0000 N   0  0  0  0  0  0  0  0  0  0  0  0
    7.8592   -7.8375    0.0000 C   0  0  0  0  0  0  0  0  0  0  0  0
    8.5737   -7.4250    0.0000 C   0  0  0  0  0  0  0  0  0  0  0  0
    9.2881   -7.8375    0.0000 C   0  0  0  0  0  0  0  0  0  0  0  0
   10.0026   -7.4250    0.0000 C   0  0  0  0  0  0  0  0  0  0  0  0
   10.7171   -7.8375    0.0000 C   0  0  0  0  0  0  0  0  0  0  0  0
   10.7171   -8.6625    0.0000 C   0  0  0  0  0  0  0  0  0  0  0  0
   11.4315   -9.0750    0.0000 N   0  0  0  0  0  0  0  0  0  0  0  0
   12.1460   -8.6625    0.0000 C   0  0  0  0  0  0  0  0  0  0  0  0
   12.8605   -9.0750    0.0000 O   0  0  0  0  0  0  0  0  0  0  0  0
   12.1460   -7.8375    0.0000 C   0  0  0  0  0  0  0  0  0  0  0  0
   11.4315   -7.4250    0.0000 C   0  0  0  0  0  0  0  0  0  0  0  0
   11.4315   -6.6000    0.0000 C   0  0  0  0  0  0  0  0  0  0  0  0
   12.1460   -6.1875    0.0000 N   0  0  0  0  0  0  0  0  0  0  0  0
   12.8605   -6.6000    0.0000 C   0  0  0  0  0  0  0  0  0  0  0  0
   13.5749   -6.1875    0.0000 C   0  0  0  0  0  0  0  0  0  0  0  0
   14.2894   -6.6000    0.0000 C   0  0  0  0  0  0  0  0  0  0  0  0
   14.2894   -7.4250    0.0000 C   0  0  0  0  0  0  0  0  0  0  0  0
   13.5749   -7.8375    0.0000 C   0  0  0  0  0  0  0  0  0  0  0  0
   12.8605   -7.4250    0.0000 C   0  0  0  0  0  0  0  0  0  0  0  0
   10.0026   -9.0750    0.0000 C   0  0  0  0  0  0  0  0  0  0  0  0
    9.2881   -8.6625    0.0000 C   0  0  0  0  0  0  0  0  0  0  0  0
    6.4302   -7.8375    0.0000 C   0  0  0  0  0  0  0  0  0  0  0  0
    5.7158   -7.4250    0.0000 C   0  0  0  0  0  0  0  0  0  0  0  0
    5.0013   -7.8375    0.0000 C   0  0  0  0  0  0  0  0  0  0  0  0
    4.2868   -7.4250    0.0000 C   0  0  0  0  0  0  0  0  0  0  0  0
    3.5724   -7.8375    0.0000 O   0  0  0  0  0  0  0  0  0  0  0  0
    2.8579   -7.4250    0.0000 C   0  0  0  0  0  0  0  0  0  0  0  0
  1  2  1  0  0  0  0
  2  3  1  0  0  0  0
  3  4  2  0  0  0  0
  3 33  1  0  0  0  0
  4  5  1  0  0  0  0
  5  6  1  0  0  0  0
  5 31  2  0  0  0  0
  6  7  1  0  0  0  0
  7  8  1  0  0  0  0
  8  9  1  0  0  0  0
  8 30  1  0  0  0  0
  9 10  1  0  0  0  0
 10 11  1  0  0  0  0
 11 12  2  0  0  0  0
 11 29  1  0  0  0  0
 12 13  1  0  0  0  0
 13 14  2  0  0  0  0
 14 15  1  0  0  0  0
 14 28  1  0  0  0  0
 15 16  1  0  0  0  0
 16 17  2  0  0  0  0
 16 18  1  0  0  0  0
 18 19  2  0  0  0  0
 18 27  1  0  0  0  0
 19 20  1  0  0  0  0
 20 21  2  0  0  0  0
 21 22  1  0  0  0  0
 22 23  2  0  0  0  0
 22 27  1  0  0  0  0
 23 24  1  0  0  0  0
 24 25  2  0  0  0  0
 25 26  1  0  0  0  0
 26 27  2  0  0  0  0
 28 29  2  0  0  0  0
 30 31  1  0  0  0  0
 31 32  1  0  0  0  0
 32 33  2  0  0  0  0
 33 34  1  0  0  0  0
 34 35  1  0  0  0  0
M  END
$$$$

 OpenBabel12191814062D

 35 39  0  0  0  0  0  0  0  0999 V2000
    7.8592   -2.8875    0.0000 C   0  0  0  0  0  0  0  0  0  0  0  0
    8.5737   -2.4750    0.0000 O   0  0  0  0  0  0  0  0  0  0  0  0
    9.2881   -2.8875    0.0000 C   0  0  0  0  0  0  0  0  0  0  0  0
   10.0026   -2.4750    0.0000 C   0  0  0  0  0  0  0  0  0  0  0  0
   10.7171   -2.8875    0.0000 C   0  0  0  0  0  0  0  0  0  0  0  0
   11.4315   -2.4750    0.0000 C   0  0  0  0  0  0  0  0  0  0  0  0
   12.1460   -2.8875    0.0000 C   0  0  0  0  0  0  0  0  0  0  0  0
   12.1460   -3.7125    0.0000 N   0  0  0  0  0  0  0  0  0  0  0  0
   12.8605   -4.1250    0.0000 C   0  0  0  0  0  0  0  0  0  0  0  0
   13.5749   -3.7125    0.0000 C   0  0  0  0  0  0  0  0  0  0  0  0
   14.2894   -4.1250    0.0000 C   0  0  0  0  0  0  0  0  0  0  0  0
   15.0039   -3.7125    0.0000 C   0  0  0  0  0  0  0  0  0  0  0  0
   15.7184   -4.1250    0.0000 C   0  0  0  0  0  0  0  0  0  0  0  0
   15.7184   -4.9500    0.0000 C   0  0  0  0  0  0  0  0  0  0  0  0
   16.4328   -5.3625    0.0000 N   0  0  0  0  0  0  0  0  0  0  0  0
   17.1473   -4.9500    0.0000 C   0  0  0  0  0  0  0  0  0  0  0  0
   17.1473   -4.1250    0.0000 O   0  0  0  0  0  0  0  0  0  0  0  0
   17.8618   -5.3625    0.0000 C   0  0  0  0  0  0  0  0  0  0  0  0
   18.5762   -4.9500    0.0000 C   0  0  0  0  0  0  0  0  0  0  0  0
   19.2907   -5.3625    0.0000 N   0  0  0  0  0  0  0  0  0  0  0  0
   19.2907   -6.1875    0.0000 C   0  0  0  0  0  0  0  0  0  0  0  0
   20.0052   -6.6000    0.0000 C   0  0  0  0  0  0  0  0  0  0  0  0
   20.0052   -7.4250    0.0000 C   0  0  0  0  0  0  0  0  0  0  0  0
   19.2907   -7.8375    0.0000 C   0  0  0  0  0  0  0  0  0  0  0  0
   18.5762   -7.4250    0.0000 C   0  0  0  0  0  0  0  0  0  0  0  0
   18.5762   -6.6000    0.0000 C   0  0  0  0  0  0  0  0  0  0  0  0
   17.8618   -6.1875    0.0000 C   0  0  0  0  0  0  0  0  0  0  0  0
   15.0039   -5.3625    0.0000 C   0  0  0  0  0  0  0  0  0  0  0  0
   14.2894   -4.9500    0.0000 C   0  0  0  0  0  0  0  0  0  0  0  0
   11.4315   -4.1250    0.0000 C   0  0  0  0  0  0  0  0  0  0  0  0
   10.7171   -3.7125    0.0000 C   0  0  0  0  0  0  0  0  0  0  0  0
   10.0026   -4.1250    0.0000 C   0  0  0  0  0  0  0  0  0  0  0  0
    9.2881   -3.7125    0.0000 C   0  0  0  0  0  0  0  0  0  0  0  0
    8.5737   -4.1250    0.0000 O   0  0  0  0  0  0  0  0  0  0  0  0
    7.8592   -3.7125    0.0000 C   0  0  0  0  0  0  0  0  0  0  0  0
  1  2  1  0  0  0  0
  2  3  1  0  0  0  0
  3  4  2  0  0  0  0
  3 33  1  0  0  0  0
  4  5  1  0  0  0  0
  5  6  1  0  0  0  0
  5 31  2  0  0  0  0
  6  7  1  0  0  0  0
  7  8  1  0  0  0  0
  8  9  1  0  0  0  0
  8 30  1  0  0  0  0
  9 10  1  0  0  0  0
 10 11  1  0  0  0  0
 11 12  2  0  0  0  0
 11 29  1  0  0  0  0
 12 13  1  0  0  0  0
 13 14  2  0  0  0  0
 14 15  1  0  0  0  0
 14 28  1  0  0  0  0
 15 16  1  0  0  0  0
 16 17  2  0  0  0  0
 16 18  1  0  0  0  0
 18 19  2  0  0  0  0
 18 27  1  0  0  0  0
 19 20  1  0  0  0  0
 20 21  2  0  0  0  0
 21 22  1  0  0  0  0
 21 26  1  0  0  0  0
 22 23  2  0  0  0  0
 23 24  1  0  0  0  0
 24 25  2  0  0  0  0
 25 26  1  0  0  0  0
 26 27  2  0  0  0  0
 28 29  2  0  0  0  0
 30 31  1  0  0  0  0
 31 32  1  0  0  0  0
 32 33  2  0  0  0  0
 33 34  1  0  0  0  0
 34 35  1  0  0  0  0
M  END
$$$$

 OpenBabel12191814062D

 35 39  0  0  0  0  0  0  0  0999 V2000
    7.8592   -2.8875    0.0000 C   0  0  0  0  0  0  0  0  0  0  0  0
    8.5737   -2.4750    0.0000 O   0  0  0  0  0  0  0  0  0  0  0  0
    9.2881   -2.8875    0.0000 C   0  0  0  0  0  0  0  0  0  0  0  0
   10.0026   -2.4750    0.0000 C   0  0  0  0  0  0  0  0  0  0  0  0
   10.7171   -2.8875    0.0000 C   0  0  0  0  0  0  0  0  0  0  0  0
   11.4315   -2.4750    0.0000 C   0  0  0  0  0  0  0  0  0  0  0  0
   12.1460   -2.8875    0.0000 C   0  0  0  0  0  0  0  0  0  0  0  0
   12.1460   -3.7125    0.0000 N   0  0  0  0  0  0  0  0  0  0  0  0
   12.8605   -4.1250    0.0000 C   0  0  0  0  0  0  0  0  0  0  0  0
   13.5749   -3.7125    0.0000 C   0  0  0  0  0  0  0  0  0  0  0  0
   14.2894   -4.1250    0.0000 C   0  0  0  0  0  0  0  0  0  0  0  0
   15.0039   -3.7125    0.0000 C   0  0  0  0  0  0  0  0  0  0  0  0
   15.7184   -4.1250    0.0000 C   0  0  0  0  0  0  0  0  0  0  0  0
   15.7184   -4.9500    0.0000 C   0  0  0  0  0  0  0  0  0  0  0  0
   16.4328   -5.3625    0.0000 N   0  0  0  0  0  0  0  0  0  0  0  0
   17.1473   -4.9500    0.0000 C   0  0  0  0  0  0  0  0  0  0  0  0
   17.1473   -4.1250    0.0000 O   0  0  0  0  0  0  0  0  0  0  0  0
   17.8618   -5.3625    0.0000 C   0  0  0  0  0  0  0  0  0  0  0  0
   18.5762   -4.9500    0.0000 C   0  0  0  0  0  0  0  0  0  0  0  0
   19.2907   -5.3625    0.0000 N   0  0  0  0  0  0  0  0  0  0  0  0
   19.2907   -6.1875    0.0000 C   0  0  0  0  0  0  0  0  0  0  0  0
   20.0052   -6.6000    0.0000 C   0  0  0  0  0  0  0  0  0  0  0  0
   20.0052   -7.4250    0.0000 C   0  0  0  0  0  0  0  0  0  0  0  0
   19.2907   -7.8375    0.0000 C   0  0  0  0  0  0  0  0  0  0  0  0
   18.5762   -7.4250    0.0000 C   0  0  0  0  0  0  0  0  0  0  0  0
   18.5762   -6.6000    0.0000 C   0  0  0  0  0  0  0  0  0  0  0  0
   17.8618   -6.1875    0.0000 N   0  0  0  0  0  0  0  0  0  0  0  0
   15.0039   -5.3625    0.0000 C   0  0  0  0  0  0  0  0  0  0  0  0
   14.2894   -4.9500    0.0000 C   0  0  0  0  0  0  0  0  0  0  0  0
   11.4315   -4.1250    0.0000 C   0  0  0  0  0  0  0  0  0  0  0  0
   10.7171   -3.7125    0.0000 C   0  0  0  0  0  0  0  0  0  0  0  0
   10.0026   -4.1250    0.0000 C   0  0  0  0  0  0  0  0  0  0  0  0
    9.2881   -3.7125    0.0000 C   0  0  0  0  0  0  0  0  0  0  0  0
    8.5737   -4.1250    0.0000 O   0  0  0  0  0  0  0  0  0  0  0  0
    7.8592   -3.7125    0.0000 C   0  0  0  0  0  0  0  0  0  0  0  0
  1  2  1  0  0  0  0
  2  3  1  0  0  0  0
  3  4  2  0  0  0  0
  3 33  1  0  0  0  0
  4  5  1  0  0  0  0
  5  6  1  0  0  0  0
  5 31  2  0  0  0  0
  6  7  1  0  0  0  0
  7  8  1  0  0  0  0
  8  9  1  0  0  0  0
  8 30  1  0  0  0  0
  9 10  1  0  0  0  0
 10 11  1  0  0  0  0
 11 12  2  0  0  0  0
 11 29  1  0  0  0  0
 12 13  1  0  0  0  0
 13 14  2  0  0  0  0
 14 15  1  0  0  0  0
 14 28  1  0  0  0  0
 15 16  1  0  0  0  0
 16 17  2  0  0  0  0
 16 18  1  0  0  0  0
 18 19  2  0  0  0  0
 18 27  1  0  0  0  0
 19 20  1  0  0  0  0
 20 21  2  0  0  0  0
 21 22  1  0  0  0  0
 21 26  1  0  0  0  0
 22 23  2  0  0  0  0
 23 24  1  0  0  0  0
 24 25  2  0  0  0  0
 25 26  1  0  0  0  0
 26 27  2  0  0  0  0
 28 29  2  0  0  0  0
 30 31  1  0  0  0  0
 31 32  1  0  0  0  0
 32 33  2  0  0  0  0
 33 34  1  0  0  0  0
 34 35  1  0  0  0  0
M  END
$$$$

 OpenBabel12191814062D

 42 47  0  0  0  0  0  0  0  0999 V2000
  -10.7171   -2.8875    0.0000 C   0  0  0  0  0  0  0  0  0  0  0  0
  -10.0026   -2.4750    0.0000 O   0  0  0  0  0  0  0  0  0  0  0  0
   -9.2881   -2.8875    0.0000 C   0  0  0  0  0  0  0  0  0  0  0  0
   -8.5737   -2.4750    0.0000 C   0  0  0  0  0  0  0  0  0  0  0  0
   -7.8592   -2.8875    0.0000 C   0  0  0  0  0  0  0  0  0  0  0  0
   -7.1447   -2.4750    0.0000 C   0  0  0  0  0  0  0  0  0  0  0  0
   -6.4302   -2.8875    0.0000 C   0  0  0  0  0  0  0  0  0  0  0  0
   -6.4302   -3.7125    0.0000 N   0  0  0  0  0  0  0  0  0  0  0  0
   -5.7158   -4.1250    0.0000 C   0  0  0  0  0  0  0  0  0  0  0  0
   -5.7158   -4.9500    0.0000 C   0  0  0  0  0  0  0  0  0  0  0  0
   -5.0013   -5.3625    0.0000 C   0  0  0  0  0  0  0  0  0  0  0  0
   -4.2868   -4.9500    0.0000 C   0  0  0  0  0  0  0  0  0  0  0  0
   -3.5724   -5.3625    0.0000 C   0  0  0  0  0  0  0  0  0  0  0  0
   -3.5724   -6.1875    0.0000 C   0  0  0  0  0  0  0  0  0  0  0  0
   -4.2868   -6.6000    0.0000 C   0  0  0  0  0  0  0  0  0  0  0  0
   -4.2868   -7.4250    0.0000 N   0  0  0  0  0  0  0  0  0  0  0  0
   -3.5724   -7.8375    0.0000 C   0  0  0  0  0  0  0  0  0  0  0  0
   -2.8579   -7.4250    0.0000 O   0  0  0  0  0  0  0  0  0  0  0  0
   -3.5724   -8.6625    0.0000 C   0  0  0  0  0  0  0  0  0  0  0  0
   -4.2868   -9.0750    0.0000 C   0  0  0  0  0  0  0  0  0  0  0  0
   -4.2868   -9.9000    0.0000 C   0  0  0  0  0  0  0  0  0  0  0  0
   -3.5724  -10.3125    0.0000 C   0  0  0  0  0  0  0  0  0  0  0  0
   -2.8579   -9.9000    0.0000 C   0  0  0  0  0  0  0  0  0  0  0  0
   -2.1434  -10.3125    0.0000 C   0  0  0  0  0  0  0  0  0  0  0  0
   -2.1434  -11.1375    0.0000 O   0  0  0  0  0  0  0  0  0  0  0  0
   -1.4289   -9.9000    0.0000 C   0  0  0  0  0  0  0  0  0  0  0  0
   -1.4289   -9.0750    0.0000 C   0  0  0  0  0  0  0  0  0  0  0  0
   -2.1434   -8.6625    0.0000 N   0  0  0  0  0  0  0  0  0  0  0  0
   -2.8579   -9.0750    0.0000 C   0  0  0  0  0  0  0  0  0  0  0  0
   -0.7145   -8.6625    0.0000 C   0  0  0  0  0  0  0  0  0  0  0  0
   -0.0000   -9.0750    0.0000 C   0  0  0  0  0  0  0  0  0  0  0  0
   -0.0000   -9.9000    0.0000 C   0  0  0  0  0  0  0  0  0  0  0  0
   -0.7145  -10.3125    0.0000 C   0  0  0  0  0  0  0  0  0  0  0  0
   -0.7145  -11.1375    0.0000 O   0  0  0  0  0  0  0  0  0  0  0  0
   -0.0000  -11.5500    0.0000 C   0  0  0  0  0  0  0  0  0  0  0  0
   -5.0013   -6.1875    0.0000 C   0  0  0  0  0  0  0  0  0  0  0  0
   -7.1447   -4.1250    0.0000 C   0  0  0  0  0  0  0  0  0  0  0  0
   -7.8592   -3.7125    0.0000 C   0  0  0  0  0  0  0  0  0  0  0  0
   -8.5737   -4.1250    0.0000 C   0  0  0  0  0  0  0  0  0  0  0  0
   -9.2881   -3.7125    0.0000 C   0  0  0  0  0  0  0  0  0  0  0  0
  -10.0026   -4.1250    0.0000 O   0  0  0  0  0  0  0  0  0  0  0  0
  -10.7171   -3.7125    0.0000 C   0  0  0  0  0  0  0  0  0  0  0  0
  1  2  1  0  0  0  0
  2  3  1  0  0  0  0
  3  4  2  0  0  0  0
  3 40  1  0  0  0  0
  4  5  1  0  0  0  0
  5  6  1  0  0  0  0
  5 38  2  0  0  0  0
  6  7  1  0  0  0  0
  7  8  1  0  0  0  0
  8  9  1  0  0  0  0
  8 37  1  0  0  0  0
  9 10  1  0  0  0  0
 10 11  1  0  0  0  0
 11 12  2  0  0  0  0
 11 36  1  0  0  0  0
 12 13  1  0  0  0  0
 13 14  2  0  0  0  0
 14 15  1  0  0  0  0
 15 16  1  0  0  0  0
 15 36  2  0  0  0  0
 16 17  1  0  0  0  0
 17 18  2  0  0  0  0
 17 19  1  0  0  0  0
 19 20  2  0  0  0  0
 19 29  1  0  0  0  0
 20 21  1  0  0  0  0
 21 22  2  0  0  0  0
 22 23  1  0  0  0  0
 23 24  1  0  0  0  0
 23 29  2  0  0  0  0
 24 25  2  0  0  0  0
 24 26  1  0  0  0  0
 26 27  2  0  0  0  0
 26 33  1  0  0  0  0
 27 28  1  0  0  0  0
 27 30  1  0  0  0  0
 28 29  1  0  0  0  0
 30 31  2  0  0  0  0
 31 32  1  0  0  0  0
 32 33  2  0  0  0  0
 33 34  1  0  0  0  0
 34 35  1  0  0  0  0
 37 38  1  0  0  0  0
 38 39  1  0  0  0  0
 39 40  2  0  0  0  0
 40 41  1  0  0  0  0
 41 42  1  0  0  0  0
M  END
$$$$

 OpenBabel12191814062D

 41 45  0  0  0  0  0  0  0  0999 V2000
   -0.7145   -0.4125    0.0000 C   0  0  0  0  0  0  0  0  0  0  0  0
    0.0000    0.0000    0.0000 O   0  0  0  0  0  0  0  0  0  0  0  0
    0.7145   -0.4125    0.0000 C   0  0  0  0  0  0  0  0  0  0  0  0
    1.4289    0.0000    0.0000 C   0  0  0  0  0  0  0  0  0  0  0  0
    2.1434   -0.4125    0.0000 C   0  0  0  0  0  0  0  0  0  0  0  0
    2.8579    0.0000    0.0000 C   0  0  0  0  0  0  0  0  0  0  0  0
    3.5724   -0.4125    0.0000 C   0  0  0  0  0  0  0  0  0  0  0  0
    3.5724   -1.2375    0.0000 N   0  0  0  0  0  0  0  0  0  0  0  0
    4.2868   -1.6500    0.0000 C   0  0  0  0  0  0  0  0  0  0  0  0
    4.2868   -2.4750    0.0000 C   0  0  0  0  0  0  0  0  0  0  0  0
    5.0013   -2.8875    0.0000 C   0  0  0  0  0  0  0  0  0  0  0  0
    5.7158   -2.4750    0.0000 C   0  0  0  0  0  0  0  0  0  0  0  0
    6.4302   -2.8875    0.0000 C   0  0  0  0  0  0  0  0  0  0  0  0
    6.4302   -3.7125    0.0000 C   0  0  0  0  0  0  0  0  0  0  0  0
    5.7158   -4.1250    0.0000 C   0  0  0  0  0  0  0  0  0  0  0  0
    5.7158   -4.9500    0.0000 N   0  0  0  0  0  0  0  0  0  0  0  0
    5.0013   -5.3625    0.0000 C   0  0  0  0  0  0  0  0  0  0  0  0
    4.2868   -4.9500    0.0000 O   0  0  0  0  0  0  0  0  0  0  0  0
    5.0013   -6.1875    0.0000 C   0  0  0  0  0  0  0  0  0  0  0  0
    5.7158   -6.6000    0.0000 C   0  0  0  0  0  0  0  0  0  0  0  0
    5.7158   -7.4250    0.0000 C   0  0  0  0  0  0  0  0  0  0  0  0
    5.0013   -7.8375    0.0000 C   0  0  0  0  0  0  0  0  0  0  0  0
    4.2868   -7.4250    0.0000 C   0  0  0  0  0  0  0  0  0  0  0  0
    4.2868   -6.6000    0.0000 C   0  0  0  0  0  0  0  0  0  0  0  0
    3.5724   -6.1875    0.0000 N   0  0  0  0  0  0  0  0  0  0  0  0
    2.8579   -6.6000    0.0000 C   0  0  0  0  0  0  0  0  0  0  0  0
    2.1434   -6.1875    0.0000 O   0  0  0  0  0  0  0  0  0  0  0  0
    2.8579   -7.4250    0.0000 C   0  0  0  0  0  0  0  0  0  0  0  0
    3.5724   -7.8375    0.0000 C   0  0  0  0  0  0  0  0  0  0  0  0
    3.5724   -8.6625    0.0000 N   0  0  0  0  0  0  0  0  0  0  0  0
    2.8579   -9.0750    0.0000 C   0  0  0  0  0  0  0  0  0  0  0  0
    2.8579   -9.9000    0.0000 C   0  0  0  0  0  0  0  0  0  0  0  0
    2.1434   -8.6625    0.0000 C   0  0  0  0  0  0  0  0  0  0  0  0
    2.1434   -7.8375    0.0000 N   0  0  0  0  0  0  0  0  0  0  0  0
    5.0013   -3.7125    0.0000 C   0  0  0  0  0  0  0  0  0  0  0  0
    2.8579   -1.6500    0.0000 C   0  0  0  0  0  0  0  0  0  0  0  0
    2.1434   -1.2375    0.0000 C   0  0  0  0  0  0  0  0  0  0  0  0
    1.4289   -1.6500    0.0000 C   0  0  0  0  0  0  0  0  0  0  0  0
    0.7145   -1.2375    0.0000 C   0  0  0  0  0  0  0  0  0  0  0  0
    0.0000   -1.6500    0.0000 O   0  0  0  0  0  0  0  0  0  0  0  0
   -0.7145   -1.2375    0.0000 C   0  0  0  0  0  0  0  0  0  0  0  0
  1  2  1  0  0  0  0
  2  3  1  0  0  0  0
  3  4  2  0  0  0  0
  3 39  1  0  0  0  0
  4  5  1  0  0  0  0
  5  6  1  0  0  0  0
  5 37  2  0  0  0  0
  6  7  1  0  0  0  0
  7  8  1  0  0  0  0
  8  9  1  0  0  0  0
  8 36  1  0  0  0  0
  9 10  1  0  0  0  0
 10 11  1  0  0  0  0
 11 12  2  0  0  0  0
 11 35  1  0  0  0  0
 12 13  1  0  0  0  0
 13 14  2  0  0  0  0
 14 15  1  0  0  0  0
 15 16  1  0  0  0  0
 15 35  2  0  0  0  0
 16 17  1  0  0  0  0
 17 18  2  0  0  0  0
 17 19  1  0  0  0  0
 19 20  2  0  0  0  0
 19 24  1  0  0  0  0
 20 21  1  0  0  0  0
 21 22  2  0  0  0  0
 22 23  1  0  0  0  0
 23 24  2  0  0  0  0
 24 25  1  0  0  0  0
 25 26  1  0  0  0  0
 26 27  2  0  0  0  0
 26 28  1  0  0  0  0
 28 29  2  0  0  0  0
 28 34  1  0  0  0  0
 29 30  1  0  0  0  0
 30 31  2  0  0  0  0
 31 32  1  0  0  0  0
 31 33  1  0  0  0  0
 33 34  2  0  0  0  0
 36 37  1  0  0  0  0
 37 38  1  0  0  0  0
 38 39  2  0  0  0  0
 39 40  1  0  0  0  0
 40 41  1  0  0  0  0
M  END
$$$$

 OpenBabel12191814062D

 42 47  0  0  0  0  0  0  0  0999 V2000
  -10.0026   -1.6500    0.0000 C   0  0  0  0  0  0  0  0  0  0  0  0
   -9.2881   -1.2375    0.0000 O   0  0  0  0  0  0  0  0  0  0  0  0
   -8.5737   -1.6500    0.0000 C   0  0  0  0  0  0  0  0  0  0  0  0
   -7.8592   -1.2375    0.0000 C   0  0  0  0  0  0  0  0  0  0  0  0
   -7.1447   -1.6500    0.0000 C   0  0  0  0  0  0  0  0  0  0  0  0
   -6.4302   -1.2375    0.0000 C   0  0  0  0  0  0  0  0  0  0  0  0
   -5.7158   -1.6500    0.0000 C   0  0  0  0  0  0  0  0  0  0  0  0
   -5.7158   -2.4750    0.0000 N   0  0  0  0  0  0  0  0  0  0  0  0
   -5.0013   -2.8875    0.0000 C   0  0  0  0  0  0  0  0  0  0  0  0
   -4.2868   -2.4750    0.0000 C   0  0  0  0  0  0  0  0  0  0  0  0
   -4.2868   -1.6500    0.0000 C   0  0  0  0  0  0  0  0  0  0  0  0
   -5.0013   -1.2375    0.0000 C   0  0  0  0  0  0  0  0  0  0  0  0
   -5.0013   -0.4125    0.0000 C   0  0  0  0  0  0  0  0  0  0  0  0
   -4.2868    0.0000    0.0000 C   0  0  0  0  0  0  0  0  0  0  0  0
   -3.5724   -0.4125    0.0000 C   0  0  0  0  0  0  0  0  0  0  0  0
   -3.5724   -1.2375    0.0000 C   0  0  0  0  0  0  0  0  0  0  0  0
   -2.8579   -1.6500    0.0000 N   0  0  0  0  0  0  0  0  0  0  0  0
   -2.1434   -1.2375    0.0000 C   0  0  0  0  0  0  0  0  0  0  0  0
   -2.1434   -0.4125    0.0000 O   0  0  0  0  0  0  0  0  0  0  0  0
   -1.4289   -1.6500    0.0000 C   0  0  0  0  0  0  0  0  0  0  0  0
   -1.4289   -2.4750    0.0000 C   0  0  0  0  0  0  0  0  0  0  0  0
   -0.7145   -2.8875    0.0000 C   0  0  0  0  0  0  0  0  0  0  0  0
    0.0000   -2.4750    0.0000 C   0  0  0  0  0  0  0  0  0  0  0  0
    0.0000   -1.6500    0.0000 C   0  0  0  0  0  0  0  0  0  0  0  0
    0.7145   -1.2375    0.0000 C   0  0  0  0  0  0  0  0  0  0  0  0
    1.4289   -1.6500    0.0000 O   0  0  0  0  0  0  0  0  0  0  0  0
    0.7145   -0.4125    0.0000 C   0  0  0  0  0  0  0  0  0  0  0  0
   -0.0000    0.0000    0.0000 C   0  0  0  0  0  0  0  0  0  0  0  0
   -0.7145   -0.4125    0.0000 N   0  0  0  0  0  0  0  0  0  0  0  0
   -0.7145   -1.2375    0.0000 C   0  0  0  0  0  0  0  0  0  0  0  0
   -0.0000    0.8250    0.0000 C   0  0  0  0  0  0  0  0  0  0  0  0
    0.7145    1.2375    0.0000 C   0  0  0  0  0  0  0  0  0  0  0  0
    1.4289    0.8250    0.0000 C   0  0  0  0  0  0  0  0  0  0  0  0
    1.4289    0.0000    0.0000 C   0  0  0  0  0  0  0  0  0  0  0  0
    2.1434   -0.4125    0.0000 O   0  0  0  0  0  0  0  0  0  0  0  0
    2.8579    0.0000    0.0000 C   0  0  0  0  0  0  0  0  0  0  0  0
   -6.4302   -2.8875    0.0000 C   0  0  0  0  0  0  0  0  0  0  0  0
   -7.1447   -2.4750    0.0000 C   0  0  0  0  0  0  0  0  0  0  0  0
   -7.8592   -2.8875    0.0000 C   0  0  0  0  0  0  0  0  0  0  0  0
   -8.5737   -2.4750    0.0000 C   0  0  0  0  0  0  0  0  0  0  0  0
   -9.2881   -2.8875    0.0000 O   0  0  0  0  0  0  0  0  0  0  0  0
  -10.0026   -2.4750    0.0000 C   0  0  0  0  0  0  0  0  0  0  0  0
  1  2  1  0  0  0  0
  2  3  1  0  0  0  0
  3  4  2  0  0  0  0
  3 40  1  0  0  0  0
  4  5  1  0  0  0  0
  5  6  1  0  0  0  0
  5 38  2  0  0  0  0
  6  7  1  0  0  0  0
  7  8  1  0  0  0  0
  8  9  1  0  0  0  0
  8 37  1  0  0  0  0
  9 10  1  0  0  0  0
 10 11  1  0  0  0  0
 11 12  2  0  0  0  0
 11 16  1  0  0  0  0
 12 13  1  0  0  0  0
 13 14  2  0  0  0  0
 14 15  1  0  0  0  0
 15 16  2  0  0  0  0
 16 17  1  0  0  0  0
 17 18  1  0  0  0  0
 18 19  2  0  0  0  0
 18 20  1  0  0  0  0
 20 21  2  0  0  0  0
 20 30  1  0  0  0  0
 21 22  1  0  0  0  0
 22 23  2  0  0  0  0
 23 24  1  0  0  0  0
 24 25  1  0  0  0  0
 24 30  2  0  0  0  0
 25 26  2  0  0  0  0
 25 27  1  0  0  0  0
 27 28  2  0  0  0  0
 27 34  1  0  0  0  0
 28 29  1  0  0  0  0
 28 31  1  0  0  0  0
 29 30  1  0  0  0  0
 31 32  2  0  0  0  0
 32 33  1  0  0  0  0
 33 34  2  0  0  0  0
 34 35  1  0  0  0  0
 35 36  1  0  0  0  0
 37 38  1  0  0  0  0
 38 39  1  0  0  0  0
 39 40  2  0  0  0  0
 40 41  1  0  0  0  0
 41 42  1  0  0  0  0
M  END
$$$$

 OpenBabel12191814062D

 43 48  0  0  0  0  0  0  0  0999 V2000
  -12.1460   -0.4125    0.0000 C   0  0  0  0  0  0  0  0  0  0  0  0
  -11.4315   -0.0000    0.0000 O   0  0  0  0  0  0  0  0  0  0  0  0
  -10.7171   -0.4125    0.0000 C   0  0  0  0  0  0  0  0  0  0  0  0
  -10.0026   -0.0000    0.0000 C   0  0  0  0  0  0  0  0  0  0  0  0
   -9.2881   -0.4125    0.0000 C   0  0  0  0  0  0  0  0  0  0  0  0
   -8.5737   -0.0000    0.0000 C   0  0  0  0  0  0  0  0  0  0  0  0
   -7.8592   -0.4125    0.0000 C   0  0  0  0  0  0  0  0  0  0  0  0
   -7.8592   -1.2375    0.0000 N   0  0  0  0  0  0  0  0  0  0  0  0
   -7.1447   -1.6500    0.0000 C   0  0  0  0  0  0  0  0  0  0  0  0
   -6.4302   -1.2375    0.0000 C   0  0  0  0  0  0  0  0  0  0  0  0
   -5.7158   -1.6500    0.0000 C   0  0  0  0  0  0  0  0  0  0  0  0
   -5.0013   -1.2375    0.0000 C   0  0  0  0  0  0  0  0  0  0  0  0
   -5.0013   -0.4125    0.0000 C   0  0  0  0  0  0  0  0  0  0  0  0
   -4.2868   -0.0000    0.0000 C   0  0  0  0  0  0  0  0  0  0  0  0
   -3.5724   -0.4125    0.0000 C   0  0  0  0  0  0  0  0  0  0  0  0
   -3.5724   -1.2375    0.0000 C   0  0  0  0  0  0  0  0  0  0  0  0
   -2.8579   -1.6500    0.0000 N   0  0  0  0  0  0  0  0  0  0  0  0
   -2.1434   -1.2375    0.0000 C   0  0  0  0  0  0  0  0  0  0  0  0
   -2.1434   -0.4125    0.0000 O   0  0  0  0  0  0  0  0  0  0  0  0
   -1.4289   -1.6500    0.0000 C   0  0  0  0  0  0  0  0  0  0  0  0
   -1.4289   -2.4750    0.0000 C   0  0  0  0  0  0  0  0  0  0  0  0
   -0.7145   -2.8875    0.0000 C   0  0  0  0  0  0  0  0  0  0  0  0
   -0.0000   -2.4750    0.0000 C   0  0  0  0  0  0  0  0  0  0  0  0
    0.0000   -1.6500    0.0000 C   0  0  0  0  0  0  0  0  0  0  0  0
    0.7145   -1.2375    0.0000 C   0  0  0  0  0  0  0  0  0  0  0  0
    1.4289   -1.6500    0.0000 O   0  0  0  0  0  0  0  0  0  0  0  0
    0.7145   -0.4125    0.0000 C   0  0  0  0  0  0  0  0  0  0  0  0
    0.0000   -0.0000    0.0000 C   0  0  0  0  0  0  0  0  0  0  0  0
   -0.7145   -0.4125    0.0000 N   0  0  0  0  0  0  0  0  0  0  0  0
   -0.7145   -1.2375    0.0000 C   0  0  0  0  0  0  0  0  0  0  0  0
    0.0000    0.8250    0.0000 C   0  0  0  0  0  0  0  0  0  0  0  0
    0.7145    1.2375    0.0000 C   0  0  0  0  0  0  0  0  0  0  0  0
    1.4289    0.8250    0.0000 C   0  0  0  0  0  0  0  0  0  0  0  0
    1.4289   -0.0000    0.0000 C   0  0  0  0  0  0  0  0  0  0  0  0
    2.1434   -0.4125    0.0000 O   0  0  0  0  0  0  0  0  0  0  0  0
    2.8579   -0.0000    0.0000 C   0  0  0  0  0  0  0  0  0  0  0  0
   -4.2868   -1.6500    0.0000 C   0  0  0  0  0  0  0  0  0  0  0  0
   -8.5737   -1.6500    0.0000 C   0  0  0  0  0  0  0  0  0  0  0  0
   -9.2881   -1.2375    0.0000 C   0  0  0  0  0  0  0  0  0  0  0  0
  -10.0026   -1.6500    0.0000 C   0  0  0  0  0  0  0  0  0  0  0  0
  -10.7171   -1.2375    0.0000 C   0  0  0  0  0  0  0  0  0  0  0  0
  -11.4315   -1.6500    0.0000 O   0  0  0  0  0  0  0  0  0  0  0  0
  -12.1460   -1.2375    0.0000 C   0  0  0  0  0  0  0  0  0  0  0  0
  1  2  1  0  0  0  0
  2  3  1  0  0  0  0
  3  4  2  0  0  0  0
  3 41  1  0  0  0  0
  4  5  1  0  0  0  0
  5  6  1  0  0  0  0
  5 39  2  0  0  0  0
  6  7  1  0  0  0  0
  7  8  1  0  0  0  0
  8  9  1  0  0  0  0
  8 38  1  0  0  0  0
  9 10  1  0  0  0  0
 10 11  1  0  0  0  0
 11 12  1  0  0  0  0
 12 13  2  0  0  0  0
 12 37  1  0  0  0  0
 13 14  1  0  0  0  0
 14 15  2  0  0  0  0
 15 16  1  0  0  0  0
 16 17  1  0  0  0  0
 16 37  2  0  0  0  0
 17 18  1  0  0  0  0
 18 19  2  0  0  0  0
 18 20  1  0  0  0  0
 20 21  2  0  0  0  0
 20 30  1  0  0  0  0
 21 22  1  0  0  0  0
 22 23  2  0  0  0  0
 23 24  1  0  0  0  0
 24 25  1  0  0  0  0
 24 30  2  0  0  0  0
 25 26  2  0  0  0  0
 25 27  1  0  0  0  0
 27 28  2  0  0  0  0
 27 34  1  0  0  0  0
 28 29  1  0  0  0  0
 28 31  1  0  0  0  0
 29 30  1  0  0  0  0
 31 32  2  0  0  0  0
 32 33  1  0  0  0  0
 33 34  2  0  0  0  0
 34 35  1  0  0  0  0
 35 36  1  0  0  0  0
 38 39  1  0  0  0  0
 39 40  1  0  0  0  0
 40 41  2  0  0  0  0
 41 42  1  0  0  0  0
 42 43  1  0  0  0  0
M  END
$$$$

 OpenBabel12191814062D

 37 41  0  0  0  0  0  0  0  0999 V2000
   -2.8579   -1.6500    0.0000 C   0  0  0  0  0  0  0  0  0  0  0  0
   -2.8579   -0.8250    0.0000 O   0  0  0  0  0  0  0  0  0  0  0  0
   -2.1434   -0.4125    0.0000 C   0  0  0  0  0  0  0  0  0  0  0  0
   -2.1434    0.4125    0.0000 C   0  0  0  0  0  0  0  0  0  0  0  0
   -1.4289    0.8250    0.0000 C   0  0  0  0  0  0  0  0  0  0  0  0
   -1.4289    1.6500    0.0000 C   0  0  0  0  0  0  0  0  0  0  0  0
   -0.7145    2.0625    0.0000 C   0  0  0  0  0  0  0  0  0  0  0  0
    0.0000    1.6500    0.0000 N   0  0  0  0  0  0  0  0  0  0  0  0
    0.7145    2.0625    0.0000 C   0  0  0  0  0  0  0  0  0  0  0  0
    1.4289    1.6500    0.0000 C   0  0  0  0  0  0  0  0  0  0  0  0
    2.1434    2.0625    0.0000 C   0  0  0  0  0  0  0  0  0  0  0  0
    2.8579    1.6500    0.0000 C   0  0  0  0  0  0  0  0  0  0  0  0
    3.5724    2.0625    0.0000 C   0  0  0  0  0  0  0  0  0  0  0  0
    4.2868    1.6500    0.0000 C   0  0  3  0  0  0  0  0  0  0  0  0
    5.0013    2.0625    0.0000 S   0  0  0  0  0  0  0  0  0  0  0  0
    5.7158    1.6500    0.0000 C   0  0  0  0  0  0  0  0  0  0  0  0
    6.4302    2.0625    0.0000 C   0  0  0  0  0  0  0  0  0  0  0  0
    7.1447    1.6500    0.0000 C   0  0  0  0  0  0  0  0  0  0  0  0
    7.1447    0.8250    0.0000 C   0  0  0  0  0  0  0  0  0  0  0  0
    7.8592    0.4125    0.0000 C   0  0  0  0  0  0  0  0  0  0  0  0
    6.4302    0.4125    0.0000 C   0  0  0  0  0  0  0  0  0  0  0  0
    5.7158    0.8250    0.0000 C   0  0  0  0  0  0  0  0  0  0  0  0
    4.2868    0.8250    0.0000 C   0  0  0  0  0  0  0  0  0  0  0  0
    5.0013    0.4125    0.0000 C   0  0  0  0  0  0  0  0  0  0  0  0
    5.0013   -0.4125    0.0000 C   0  0  0  0  0  0  0  0  0  0  0  0
    4.2868   -0.8250    0.0000 C   0  0  0  0  0  0  0  0  0  0  0  0
    4.1153   -1.6320    0.0000 O   0  0  0  0  0  0  0  0  0  0  0  0
    3.2948   -1.7182    0.0000 C   0  0  0  0  0  0  0  0  0  0  0  0
    2.9593   -0.9645    0.0000 O   0  0  0  0  0  0  0  0  0  0  0  0
    3.5724   -0.4125    0.0000 C   0  0  0  0  0  0  0  0  0  0  0  0
    3.5724    0.4125    0.0000 C   0  0  0  0  0  0  0  0  0  0  0  0
    0.0000    0.8250    0.0000 C   0  0  0  0  0  0  0  0  0  0  0  0
   -0.7145    0.4125    0.0000 C   0  0  0  0  0  0  0  0  0  0  0  0
   -0.7145   -0.4125    0.0000 C   0  0  0  0  0  0  0  0  0  0  0  0
   -1.4289   -0.8250    0.0000 C   0  0  0  0  0  0  0  0  0  0  0  0
   -1.4289   -1.6500    0.0000 O   0  0  0  0  0  0  0  0  0  0  0  0
   -2.1434   -2.0625    0.0000 C   0  0  0  0  0  0  0  0  0  0  0  0
  1  2  1  0  0  0  0
  2  3  1  0  0  0  0
  3  4  2  0  0  0  0
  3 35  1  0  0  0  0
  4  5  1  0  0  0  0
  5  6  1  0  0  0  0
  5 33  2  0  0  0  0
  6  7  1  0  0  0  0
  7  8  1  0  0  0  0
  8  9  1  0  0  0  0
  8 32  1  0  0  0  0
  9 10  1  0  0  0  0
 10 11  1  0  0  0  0
 11 12  1  0  0  0  0
 12 13  1  0  0  0  0
 13 14  1  0  0  0  0
 14 15  1  0  0  0  0
 14 23  1  0  0  0  0
 15 16  1  0  0  0  0
 16 17  2  0  0  0  0
 16 22  1  0  0  0  0
 17 18  1  0  0  0  0
 18 19  2  0  0  0  0
 19 20  1  0  0  0  0
 19 21  1  0  0  0  0
 21 22  2  0  0  0  0
 23 24  2  0  0  0  0
 23 31  1  0  0  0  0
 24 25  1  0  0  0  0
 25 26  2  0  0  0  0
 26 27  1  0  0  0  0
 26 30  1  0  0  0  0
 27 28  1  0  0  0  0
 28 29  1  0  0  0  0
 29 30  1  0  0  0  0
 30 31  2  0  0  0  0
 32 33  1  0  0  0  0
 33 34  1  0  0  0  0
 34 35  2  0  0  0  0
 35 36  1  0  0  0  0
 36 37  1  0  0  0  0
M  END
$$$$

 OpenBabel12191814062D

 42 47  0  0  0  0  0  0  0  0999 V2000
    4.2868   -9.0750    0.0000 C   0  0  0  0  0  0  0  0  0  0  0  0
    5.0013   -8.6625    0.0000 O   0  0  0  0  0  0  0  0  0  0  0  0
    5.7158   -9.0750    0.0000 C   0  0  0  0  0  0  0  0  0  0  0  0
    6.4302   -8.6625    0.0000 C   0  0  0  0  0  0  0  0  0  0  0  0
    7.1447   -9.0750    0.0000 C   0  0  0  0  0  0  0  0  0  0  0  0
    7.8592   -8.6625    0.0000 C   0  0  0  0  0  0  0  0  0  0  0  0
    8.5737   -9.0750    0.0000 C   0  0  0  0  0  0  0  0  0  0  0  0
    8.5737   -9.9000    0.0000 N   0  0  0  0  0  0  0  0  0  0  0  0
    9.2881  -10.3125    0.0000 C   0  0  0  0  0  0  0  0  0  0  0  0
   10.0026   -9.9000    0.0000 C   0  0  0  0  0  0  0  0  0  0  0  0
   10.7171  -10.3125    0.0000 C   0  0  0  0  0  0  0  0  0  0  0  0
   11.4315   -9.9000    0.0000 O   0  0  0  0  0  0  0  0  0  0  0  0
   12.1460  -10.3125    0.0000 C   0  0  0  0  0  0  0  0  0  0  0  0
   12.8605   -9.9000    0.0000 C   0  0  0  0  0  0  0  0  0  0  0  0
   13.5749  -10.3125    0.0000 C   0  0  0  0  0  0  0  0  0  0  0  0
   13.5749  -11.1375    0.0000 C   0  0  0  0  0  0  0  0  0  0  0  0
   14.2894  -11.5500    0.0000 N   0  0  0  0  0  0  0  0  0  0  0  0
   15.0039  -11.1375    0.0000 C   0  0  0  0  0  0  0  0  0  0  0  0
   15.7184  -11.5500    0.0000 O   0  0  0  0  0  0  0  0  0  0  0  0
   15.0039  -10.3125    0.0000 C   0  0  0  0  0  0  0  0  0  0  0  0
   14.2894   -9.9000    0.0000 C   0  0  0  0  0  0  0  0  0  0  0  0
   14.2894   -9.0750    0.0000 C   0  0  0  0  0  0  0  0  0  0  0  0
   15.0039   -8.6625    0.0000 C   0  0  0  0  0  0  0  0  0  0  0  0
   15.7184   -9.0750    0.0000 C   0  0  0  0  0  0  0  0  0  0  0  0
   16.4328   -8.6625    0.0000 C   0  0  0  0  0  0  0  0  0  0  0  0
   16.4328   -7.8375    0.0000 O   0  0  0  0  0  0  0  0  0  0  0  0
   17.1473   -9.0750    0.0000 C   0  0  0  0  0  0  0  0  0  0  0  0
   17.8618   -8.6625    0.0000 C   0  0  0  0  0  0  0  0  0  0  0  0
   18.5762   -9.0750    0.0000 C   0  0  0  0  0  0  0  0  0  0  0  0
   18.5762   -9.9000    0.0000 C   0  0  0  0  0  0  0  0  0  0  0  0
   17.8618  -10.3125    0.0000 C   0  0  0  0  0  0  0  0  0  0  0  0
   17.1473   -9.9000    0.0000 C   0  0  0  0  0  0  0  0  0  0  0  0
   16.4328  -10.3125    0.0000 N   0  0  0  0  0  0  0  0  0  0  0  0
   15.7184   -9.9000    0.0000 C   0  0  0  0  0  0  0  0  0  0  0  0
   12.8605  -11.5500    0.0000 C   0  0  0  0  0  0  0  0  0  0  0  0
   12.1460  -11.1375    0.0000 C   0  0  0  0  0  0  0  0  0  0  0  0
    7.8592  -10.3125    0.0000 C   0  0  0  0  0  0  0  0  0  0  0  0
    7.1447   -9.9000    0.0000 C   0  0  0  0  0  0  0  0  0  0  0  0
    6.4302  -10.3125    0.0000 C   0  0  0  0  0  0  0  0  0  0  0  0
    5.7158   -9.9000    0.0000 C   0  0  0  0  0  0  0  0  0  0  0  0
    5.0013  -10.3125    0.0000 O   0  0  0  0  0  0  0  0  0  0  0  0
    4.2868   -9.9000    0.0000 C   0  0  0  0  0  0  0  0  0  0  0  0
  1  2  1  0  0  0  0
  2  3  1  0  0  0  0
  3  4  2  0  0  0  0
  3 40  1  0  0  0  0
  4  5  1  0  0  0  0
  5  6  1  0  0  0  0
  5 38  2  0  0  0  0
  6  7  1  0  0  0  0
  7  8  1  0  0  0  0
  8  9  1  0  0  0  0
  8 37  1  0  0  0  0
  9 10  1  0  0  0  0
 10 11  1  0  0  0  0
 11 12  1  0  0  0  0
 12 13  1  0  0  0  0
 13 14  2  0  0  0  0
 13 36  1  0  0  0  0
 14 15  1  0  0  0  0
 15 16  2  0  0  0  0
 16 17  1  0  0  0  0
 16 35  1  0  0  0  0
 17 18  1  0  0  0  0
 18 19  2  0  0  0  0
 18 20  1  0  0  0  0
 20 21  2  0  0  0  0
 20 34  1  0  0  0  0
 21 22  1  0  0  0  0
 22 23  2  0  0  0  0
 23 24  1  0  0  0  0
 24 25  1  0  0  0  0
 24 34  2  0  0  0  0
 25 26  2  0  0  0  0
 25 27  1  0  0  0  0
 27 28  2  0  0  0  0
 27 32  1  0  0  0  0
 28 29  1  0  0  0  0
 29 30  2  0  0  0  0
 30 31  1  0  0  0  0
 31 32  2  0  0  0  0
 32 33  1  0  0  0  0
 33 34  1  0  0  0  0
 35 36  2  0  0  0  0
 37 38  1  0  0  0  0
 38 39  1  0  0  0  0
 39 40  2  0  0  0  0
 40 41  1  0  0  0  0
 41 42  1  0  0  0  0
M  END
$$$$

 OpenBabel12191814062D

 38 41  0  0  0  0  0  0  0  0999 V2000
   -0.7145   -0.4125    0.0000 C   0  0  0  0  0  0  0  0  0  0  0  0
    0.0000    0.0000    0.0000 O   0  0  0  0  0  0  0  0  0  0  0  0
    0.7145   -0.4125    0.0000 C   0  0  0  0  0  0  0  0  0  0  0  0
    1.4289    0.0000    0.0000 C   0  0  0  0  0  0  0  0  0  0  0  0
    2.1434   -0.4125    0.0000 C   0  0  0  0  0  0  0  0  0  0  0  0
    2.8579    0.0000    0.0000 C   0  0  0  0  0  0  0  0  0  0  0  0
    3.5724   -0.4125    0.0000 C   0  0  0  0  0  0  0  0  0  0  0  0
    3.5724   -1.2375    0.0000 N   0  0  0  0  0  0  0  0  0  0  0  0
    4.2868   -1.6500    0.0000 C   0  0  0  0  0  0  0  0  0  0  0  0
    4.2868   -2.4750    0.0000 C   0  0  0  0  0  0  0  0  0  0  0  0
    5.0013   -2.8875    0.0000 N   0  0  0  0  0  0  0  0  0  0  0  0
    5.7158   -2.4750    0.0000 C   0  0  0  0  0  0  0  0  0  0  0  0
    5.7158   -1.6500    0.0000 O   0  0  0  0  0  0  0  0  0  0  0  0
    6.4302   -2.8875    0.0000 C   0  0  0  0  0  0  0  0  0  0  0  0
    6.4302   -3.7125    0.0000 C   0  0  0  0  0  0  0  0  0  0  0  0
    5.7158   -4.1250    0.0000 Cl  0  0  0  0  0  0  0  0  0  0  0  0
    7.1447   -4.1250    0.0000 C   0  0  0  0  0  0  0  0  0  0  0  0
    7.8592   -3.7125    0.0000 C   0  0  0  0  0  0  0  0  0  0  0  0
    7.8592   -2.8875    0.0000 C   0  0  0  0  0  0  0  0  0  0  0  0
    7.1447   -2.4750    0.0000 C   0  0  0  0  0  0  0  0  0  0  0  0
    7.1447   -1.6500    0.0000 N   0  0  0  0  0  0  0  0  0  0  0  0
    7.8592   -1.2375    0.0000 C   0  0  0  0  0  0  0  0  0  0  0  0
    7.8592   -0.4125    0.0000 O   0  0  0  0  0  0  0  0  0  0  0  0
    8.5737   -1.6500    0.0000 C   0  0  0  0  0  0  0  0  0  0  0  0
    9.2881   -1.2375    0.0000 C   0  0  0  0  0  0  0  0  0  0  0  0
   10.0026   -1.6500    0.0000 C   0  0  0  0  0  0  0  0  0  0  0  0
   10.0026   -2.4750    0.0000 C   0  0  0  0  0  0  0  0  0  0  0  0
    9.2881   -2.8875    0.0000 C   0  0  0  0  0  0  0  0  0  0  0  0
    8.5737   -2.4750    0.0000 C   0  0  0  0  0  0  0  0  0  0  0  0
   10.7171   -2.8875    0.0000 C   0  0  0  0  0  0  0  0  0  0  0  0
   11.4315   -2.4750    0.0000 C   0  0  0  0  0  0  0  0  0  0  0  0
   10.7171   -3.7125    0.0000 C   0  0  0  0  0  0  0  0  0  0  0  0
    2.8579   -1.6500    0.0000 C   0  0  0  0  0  0  0  0  0  0  0  0
    2.1434   -1.2375    0.0000 C   0  0  0  0  0  0  0  0  0  0  0  0
    1.4289   -1.6500    0.0000 C   0  0  0  0  0  0  0  0  0  0  0  0
    0.7145   -1.2375    0.0000 C   0  0  0  0  0  0  0  0  0  0  0  0
    0.0000   -1.6500    0.0000 O   0  0  0  0  0  0  0  0  0  0  0  0
   -0.7145   -1.2375    0.0000 C   0  0  0  0  0  0  0  0  0  0  0  0
  1  2  1  0  0  0  0
  2  3  1  0  0  0  0
  3  4  2  0  0  0  0
  3 36  1  0  0  0  0
  4  5  1  0  0  0  0
  5  6  1  0  0  0  0
  5 34  2  0  0  0  0
  6  7  1  0  0  0  0
  7  8  1  0  0  0  0
  8  9  1  0  0  0  0
  8 33  1  0  0  0  0
  9 10  1  0  0  0  0
 10 11  1  0  0  0  0
 11 12  1  0  0  0  0
 12 13  2  0  0  0  0
 12 14  1  0  0  0  0
 14 15  2  0  0  0  0
 14 20  1  0  0  0  0
 15 16  1  0  0  0  0
 15 17  1  0  0  0  0
 17 18  2  0  0  0  0
 18 19  1  0  0  0  0
 19 20  2  0  0  0  0
 20 21  1  0  0  0  0
 21 22  1  0  0  0  0
 22 23  2  0  0  0  0
 22 24  1  0  0  0  0
 24 25  2  0  0  0  0
 24 29  1  0  0  0  0
 25 26  1  0  0  0  0
 26 27  2  0  0  0  0
 27 28  1  0  0  0  0
 27 30  1  0  0  0  0
 28 29  2  0  0  0  0
 30 31  1  0  0  0  0
 30 32  1  0  0  0  0
 33 34  1  0  0  0  0
 34 35  1  0  0  0  0
 35 36  2  0  0  0  0
 36 37  1  0  0  0  0
 37 38  1  0  0  0  0
M  END
$$$$

 OpenBabel12191814062D

 38 41  0  0  0  0  0  0  0  0999 V2000
   -0.7145   -0.4125    0.0000 C   0  0  0  0  0  0  0  0  0  0  0  0
    0.0000    0.0000    0.0000 O   0  0  0  0  0  0  0  0  0  0  0  0
    0.7145   -0.4125    0.0000 C   0  0  0  0  0  0  0  0  0  0  0  0
    1.4289    0.0000    0.0000 C   0  0  0  0  0  0  0  0  0  0  0  0
    2.1434   -0.4125    0.0000 C   0  0  0  0  0  0  0  0  0  0  0  0
    2.8579    0.0000    0.0000 C   0  0  0  0  0  0  0  0  0  0  0  0
    3.5724   -0.4125    0.0000 C   0  0  0  0  0  0  0  0  0  0  0  0
    3.5724   -1.2375    0.0000 N   0  0  0  0  0  0  0  0  0  0  0  0
    4.2868   -1.6500    0.0000 C   0  0  0  0  0  0  0  0  0  0  0  0
    4.2868   -2.4750    0.0000 C   0  0  0  0  0  0  0  0  0  0  0  0
    5.0013   -2.8875    0.0000 N   0  0  0  0  0  0  0  0  0  0  0  0
    5.7158   -2.4750    0.0000 C   0  0  0  0  0  0  0  0  0  0  0  0
    6.4302   -2.8875    0.0000 O   0  0  0  0  0  0  0  0  0  0  0  0
    5.7158   -1.6500    0.0000 C   0  0  0  0  0  0  0  0  0  0  0  0
    5.0013   -1.2375    0.0000 C   0  0  0  0  0  0  0  0  0  0  0  0
    5.0013   -0.4125    0.0000 C   0  0  0  0  0  0  0  0  0  0  0  0
    4.2868   -0.0000    0.0000 Cl  0  0  0  0  0  0  0  0  0  0  0  0
    5.7158   -0.0000    0.0000 C   0  0  0  0  0  0  0  0  0  0  0  0
    6.4302   -0.4125    0.0000 C   0  0  0  0  0  0  0  0  0  0  0  0
    6.4302   -1.2375    0.0000 C   0  0  0  0  0  0  0  0  0  0  0  0
    7.1447   -1.6500    0.0000 N   0  0  0  0  0  0  0  0  0  0  0  0
    7.8592   -1.2375    0.0000 C   0  0  0  0  0  0  0  0  0  0  0  0
    7.8592   -0.4125    0.0000 O   0  0  0  0  0  0  0  0  0  0  0  0
    8.5737   -1.6500    0.0000 C   0  0  0  0  0  0  0  0  0  0  0  0
    9.2881   -1.2375    0.0000 C   0  0  0  0  0  0  0  0  0  0  0  0
   10.0026   -1.6500    0.0000 C   0  0  0  0  0  0  0  0  0  0  0  0
   10.0026   -2.4750    0.0000 C   0  0  0  0  0  0  0  0  0  0  0  0
    9.2881   -2.8875    0.0000 C   0  0  0  0  0  0  0  0  0  0  0  0
    8.5737   -2.4750    0.0000 C   0  0  0  0  0  0  0  0  0  0  0  0
   10.7171   -2.8875    0.0000 C   0  0  0  0  0  0  0  0  0  0  0  0
   11.4315   -2.4750    0.0000 C   0  0  0  0  0  0  0  0  0  0  0  0
   10.7171   -3.7125    0.0000 C   0  0  0  0  0  0  0  0  0  0  0  0
    2.8579   -1.6500    0.0000 C   0  0  0  0  0  0  0  0  0  0  0  0
    2.1434   -1.2375    0.0000 C   0  0  0  0  0  0  0  0  0  0  0  0
    1.4289   -1.6500    0.0000 C   0  0  0  0  0  0  0  0  0  0  0  0
    0.7145   -1.2375    0.0000 C   0  0  0  0  0  0  0  0  0  0  0  0
    0.0000   -1.6500    0.0000 O   0  0  0  0  0  0  0  0  0  0  0  0
   -0.7145   -1.2375    0.0000 C   0  0  0  0  0  0  0  0  0  0  0  0
  1  2  1  0  0  0  0
  2  3  1  0  0  0  0
  3  4  2  0  0  0  0
  3 36  1  0  0  0  0
  4  5  1  0  0  0  0
  5  6  1  0  0  0  0
  5 34  2  0  0  0  0
  6  7  1  0  0  0  0
  7  8  1  0  0  0  0
  8  9  1  0  0  0  0
  8 33  1  0  0  0  0
  9 10  1  0  0  0  0
 10 11  1  0  0  0  0
 11 12  1  0  0  0  0
 12 13  2  0  0  0  0
 12 14  1  0  0  0  0
 14 15  2  0  0  0  0
 14 20  1  0  0  0  0
 15 16  1  0  0  0  0
 16 17  1  0  0  0  0
 16 18  2  0  0  0  0
 18 19  1  0  0  0  0
 19 20  2  0  0  0  0
 20 21  1  0  0  0  0
 21 22  1  0  0  0  0
 22 23  2  0  0  0  0
 22 24  1  0  0  0  0
 24 25  2  0  0  0  0
 24 29  1  0  0  0  0
 25 26  1  0  0  0  0
 26 27  2  0  0  0  0
 27 28  1  0  0  0  0
 27 30  1  0  0  0  0
 28 29  2  0  0  0  0
 30 31  1  0  0  0  0
 30 32  1  0  0  0  0
 33 34  1  0  0  0  0
 34 35  1  0  0  0  0
 35 36  2  0  0  0  0
 36 37  1  0  0  0  0
 37 38  1  0  0  0  0
M  END
$$$$

 OpenBabel12191814062D

 38 41  0  0  0  0  0  0  0  0999 V2000
   -0.7145   -0.4125    0.0000 C   0  0  0  0  0  0  0  0  0  0  0  0
    0.0000    0.0000    0.0000 O   0  0  0  0  0  0  0  0  0  0  0  0
    0.7145   -0.4125    0.0000 C   0  0  0  0  0  0  0  0  0  0  0  0
    1.4289    0.0000    0.0000 C   0  0  0  0  0  0  0  0  0  0  0  0
    2.1434   -0.4125    0.0000 C   0  0  0  0  0  0  0  0  0  0  0  0
    2.8579    0.0000    0.0000 C   0  0  0  0  0  0  0  0  0  0  0  0
    3.5724   -0.4125    0.0000 C   0  0  0  0  0  0  0  0  0  0  0  0
    3.5724   -1.2375    0.0000 N   0  0  0  0  0  0  0  0  0  0  0  0
    4.2868   -1.6500    0.0000 C   0  0  0  0  0  0  0  0  0  0  0  0
    4.2868   -2.4750    0.0000 C   0  0  0  0  0  0  0  0  0  0  0  0
    5.0013   -2.8875    0.0000 N   0  0  0  0  0  0  0  0  0  0  0  0
    5.7158   -2.4750    0.0000 C   0  0  0  0  0  0  0  0  0  0  0  0
    6.4302   -2.8875    0.0000 O   0  0  0  0  0  0  0  0  0  0  0  0
    5.7158   -1.6500    0.0000 C   0  0  0  0  0  0  0  0  0  0  0  0
    5.0013   -1.2375    0.0000 C   0  0  0  0  0  0  0  0  0  0  0  0
    5.0013   -0.4125    0.0000 C   0  0  0  0  0  0  0  0  0  0  0  0
    5.7158   -0.0000    0.0000 C   0  0  0  0  0  0  0  0  0  0  0  0
    5.7158    0.8250    0.0000 Cl  0  0  0  0  0  0  0  0  0  0  0  0
    6.4302   -0.4125    0.0000 C   0  0  0  0  0  0  0  0  0  0  0  0
    6.4302   -1.2375    0.0000 C   0  0  0  0  0  0  0  0  0  0  0  0
    7.1447   -1.6500    0.0000 N   0  0  0  0  0  0  0  0  0  0  0  0
    7.8592   -1.2375    0.0000 C   0  0  0  0  0  0  0  0  0  0  0  0
    7.8592   -0.4125    0.0000 O   0  0  0  0  0  0  0  0  0  0  0  0
    8.5737   -1.6500    0.0000 C   0  0  0  0  0  0  0  0  0  0  0  0
    9.2881   -1.2375    0.0000 C   0  0  0  0  0  0  0  0  0  0  0  0
   10.0026   -1.6500    0.0000 C   0  0  0  0  0  0  0  0  0  0  0  0
   10.0026   -2.4750    0.0000 C   0  0  0  0  0  0  0  0  0  0  0  0
    9.2881   -2.8875    0.0000 C   0  0  0  0  0  0  0  0  0  0  0  0
    8.5737   -2.4750    0.0000 C   0  0  0  0  0  0  0  0  0  0  0  0
   10.7171   -2.8875    0.0000 C   0  0  0  0  0  0  0  0  0  0  0  0
   11.4315   -2.4750    0.0000 C   0  0  0  0  0  0  0  0  0  0  0  0
   10.7171   -3.7125    0.0000 C   0  0  0  0  0  0  0  0  0  0  0  0
    2.8579   -1.6500    0.0000 C   0  0  0  0  0  0  0  0  0  0  0  0
    2.1434   -1.2375    0.0000 C   0  0  0  0  0  0  0  0  0  0  0  0
    1.4289   -1.6500    0.0000 C   0  0  0  0  0  0  0  0  0  0  0  0
    0.7145   -1.2375    0.0000 C   0  0  0  0  0  0  0  0  0  0  0  0
    0.0000   -1.6500    0.0000 O   0  0  0  0  0  0  0  0  0  0  0  0
   -0.7145   -1.2375    0.0000 C   0  0  0  0  0  0  0  0  0  0  0  0
  1  2  1  0  0  0  0
  2  3  1  0  0  0  0
  3  4  2  0  0  0  0
  3 36  1  0  0  0  0
  4  5  1  0  0  0  0
  5  6  1  0  0  0  0
  5 34  2  0  0  0  0
  6  7  1  0  0  0  0
  7  8  1  0  0  0  0
  8  9  1  0  0  0  0
  8 33  1  0  0  0  0
  9 10  1  0  0  0  0
 10 11  1  0  0  0  0
 11 12  1  0  0  0  0
 12 13  2  0  0  0  0
 12 14  1  0  0  0  0
 14 15  2  0  0  0  0
 14 20  1  0  0  0  0
 15 16  1  0  0  0  0
 16 17  2  0  0  0  0
 17 18  1  0  0  0  0
 17 19  1  0  0  0  0
 19 20  2  0  0  0  0
 20 21  1  0  0  0  0
 21 22  1  0  0  0  0
 22 23  2  0  0  0  0
 22 24  1  0  0  0  0
 24 25  2  0  0  0  0
 24 29  1  0  0  0  0
 25 26  1  0  0  0  0
 26 27  2  0  0  0  0
 27 28  1  0  0  0  0
 27 30  1  0  0  0  0
 28 29  2  0  0  0  0
 30 31  1  0  0  0  0
 30 32  1  0  0  0  0
 33 34  1  0  0  0  0
 34 35  1  0  0  0  0
 35 36  2  0  0  0  0
 36 37  1  0  0  0  0
 37 38  1  0  0  0  0
M  END
$$$$

 OpenBabel12191814062D

 38 41  0  0  0  0  0  0  0  0999 V2000
   -0.7145   -0.4125    0.0000 C   0  0  0  0  0  0  0  0  0  0  0  0
    0.0000    0.0000    0.0000 O   0  0  0  0  0  0  0  0  0  0  0  0
    0.7145   -0.4125    0.0000 C   0  0  0  0  0  0  0  0  0  0  0  0
    1.4289    0.0000    0.0000 C   0  0  0  0  0  0  0  0  0  0  0  0
    2.1434   -0.4125    0.0000 C   0  0  0  0  0  0  0  0  0  0  0  0
    2.8579    0.0000    0.0000 C   0  0  0  0  0  0  0  0  0  0  0  0
    3.5724   -0.4125    0.0000 C   0  0  0  0  0  0  0  0  0  0  0  0
    3.5724   -1.2375    0.0000 N   0  0  0  0  0  0  0  0  0  0  0  0
    4.2868   -1.6500    0.0000 C   0  0  0  0  0  0  0  0  0  0  0  0
    4.2868   -2.4750    0.0000 C   0  0  0  0  0  0  0  0  0  0  0  0
    5.0013   -2.8875    0.0000 N   0  0  0  0  0  0  0  0  0  0  0  0
    5.7158   -2.4750    0.0000 C   0  0  0  0  0  0  0  0  0  0  0  0
    6.4302   -2.8875    0.0000 O   0  0  0  0  0  0  0  0  0  0  0  0
    5.7158   -1.6500    0.0000 C   0  0  0  0  0  0  0  0  0  0  0  0
    5.0013   -1.2375    0.0000 C   0  0  0  0  0  0  0  0  0  0  0  0
    5.0013   -0.4125    0.0000 C   0  0  0  0  0  0  0  0  0  0  0  0
    5.7158   -0.0000    0.0000 C   0  0  0  0  0  0  0  0  0  0  0  0
    5.7158    0.8250    0.0000 N   0  0  0  0  0  0  0  0  0  0  0  0
    6.4302   -0.4125    0.0000 C   0  0  0  0  0  0  0  0  0  0  0  0
    6.4302   -1.2375    0.0000 C   0  0  0  0  0  0  0  0  0  0  0  0
    7.1447   -1.6500    0.0000 N   0  0  0  0  0  0  0  0  0  0  0  0
    7.8592   -1.2375    0.0000 C   0  0  0  0  0  0  0  0  0  0  0  0
    7.8592   -0.4125    0.0000 O   0  0  0  0  0  0  0  0  0  0  0  0
    8.5737   -1.6500    0.0000 C   0  0  0  0  0  0  0  0  0  0  0  0
    9.2881   -1.2375    0.0000 C   0  0  0  0  0  0  0  0  0  0  0  0
   10.0026   -1.6500    0.0000 C   0  0  0  0  0  0  0  0  0  0  0  0
   10.0026   -2.4750    0.0000 C   0  0  0  0  0  0  0  0  0  0  0  0
    9.2881   -2.8875    0.0000 C   0  0  0  0  0  0  0  0  0  0  0  0
    8.5737   -2.4750    0.0000 C   0  0  0  0  0  0  0  0  0  0  0  0
   10.7171   -2.8875    0.0000 C   0  0  0  0  0  0  0  0  0  0  0  0
   11.4315   -2.4750    0.0000 C   0  0  0  0  0  0  0  0  0  0  0  0
   10.7171   -3.7125    0.0000 C   0  0  0  0  0  0  0  0  0  0  0  0
    2.8579   -1.6500    0.0000 C   0  0  0  0  0  0  0  0  0  0  0  0
    2.1434   -1.2375    0.0000 C   0  0  0  0  0  0  0  0  0  0  0  0
    1.4289   -1.6500    0.0000 C   0  0  0  0  0  0  0  0  0  0  0  0
    0.7145   -1.2375    0.0000 C   0  0  0  0  0  0  0  0  0  0  0  0
    0.0000   -1.6500    0.0000 O   0  0  0  0  0  0  0  0  0  0  0  0
   -0.7145   -1.2375    0.0000 C   0  0  0  0  0  0  0  0  0  0  0  0
  1  2  1  0  0  0  0
  2  3  1  0  0  0  0
  3  4  2  0  0  0  0
  3 36  1  0  0  0  0
  4  5  1  0  0  0  0
  5  6  1  0  0  0  0
  5 34  2  0  0  0  0
  6  7  1  0  0  0  0
  7  8  1  0  0  0  0
  8  9  1  0  0  0  0
  8 33  1  0  0  0  0
  9 10  1  0  0  0  0
 10 11  1  0  0  0  0
 11 12  1  0  0  0  0
 12 13  2  0  0  0  0
 12 14  1  0  0  0  0
 14 15  2  0  0  0  0
 14 20  1  0  0  0  0
 15 16  1  0  0  0  0
 16 17  2  0  0  0  0
 17 18  1  0  0  0  0
 17 19  1  0  0  0  0
 19 20  2  0  0  0  0
 20 21  1  0  0  0  0
 21 22  1  0  0  0  0
 22 23  2  0  0  0  0
 22 24  1  0  0  0  0
 24 25  2  0  0  0  0
 24 29  1  0  0  0  0
 25 26  1  0  0  0  0
 26 27  2  0  0  0  0
 27 28  1  0  0  0  0
 27 30  1  0  0  0  0
 28 29  2  0  0  0  0
 30 31  1  0  0  0  0
 30 32  1  0  0  0  0
 33 34  1  0  0  0  0
 34 35  1  0  0  0  0
 35 36  2  0  0  0  0
 36 37  1  0  0  0  0
 37 38  1  0  0  0  0
M  END
$$$$

 OpenBabel12191814062D

 38 41  0  0  0  0  0  0  0  0999 V2000
   -0.7145   -0.4125    0.0000 C   0  0  0  0  0  0  0  0  0  0  0  0
    0.0000    0.0000    0.0000 O   0  0  0  0  0  0  0  0  0  0  0  0
    0.7145   -0.4125    0.0000 C   0  0  0  0  0  0  0  0  0  0  0  0
    1.4289    0.0000    0.0000 C   0  0  0  0  0  0  0  0  0  0  0  0
    2.1434   -0.4125    0.0000 C   0  0  0  0  0  0  0  0  0  0  0  0
    2.8579    0.0000    0.0000 C   0  0  0  0  0  0  0  0  0  0  0  0
    3.5724   -0.4125    0.0000 C   0  0  0  0  0  0  0  0  0  0  0  0
    3.5724   -1.2375    0.0000 N   0  0  0  0  0  0  0  0  0  0  0  0
    4.2868   -1.6500    0.0000 C   0  0  0  0  0  0  0  0  0  0  0  0
    4.2868   -2.4750    0.0000 C   0  0  0  0  0  0  0  0  0  0  0  0
    5.0013   -2.8875    0.0000 N   0  0  0  0  0  0  0  0  0  0  0  0
    5.7158   -2.4750    0.0000 C   0  0  0  0  0  0  0  0  0  0  0  0
    6.4302   -2.8875    0.0000 O   0  0  0  0  0  0  0  0  0  0  0  0
    5.7158   -1.6500    0.0000 C   0  0  0  0  0  0  0  0  0  0  0  0
    5.0013   -1.2375    0.0000 C   0  0  0  0  0  0  0  0  0  0  0  0
    5.0013   -0.4125    0.0000 C   0  0  0  0  0  0  0  0  0  0  0  0
    5.7158   -0.0000    0.0000 C   0  0  0  0  0  0  0  0  0  0  0  0
    6.4302   -0.4125    0.0000 C   0  0  0  0  0  0  0  0  0  0  0  0
    7.1447   -0.0000    0.0000 C   0  0  0  0  0  0  0  0  0  0  0  0
    6.4302   -1.2375    0.0000 C   0  0  0  0  0  0  0  0  0  0  0  0
    7.1447   -1.6500    0.0000 N   0  0  0  0  0  0  0  0  0  0  0  0
    7.8592   -1.2375    0.0000 C   0  0  0  0  0  0  0  0  0  0  0  0
    7.8592   -0.4125    0.0000 O   0  0  0  0  0  0  0  0  0  0  0  0
    8.5737   -1.6500    0.0000 C   0  0  0  0  0  0  0  0  0  0  0  0
    9.2881   -1.2375    0.0000 C   0  0  0  0  0  0  0  0  0  0  0  0
   10.0026   -1.6500    0.0000 C   0  0  0  0  0  0  0  0  0  0  0  0
   10.0026   -2.4750    0.0000 C   0  0  0  0  0  0  0  0  0  0  0  0
    9.2881   -2.8875    0.0000 C   0  0  0  0  0  0  0  0  0  0  0  0
    8.5737   -2.4750    0.0000 C   0  0  0  0  0  0  0  0  0  0  0  0
   10.7171   -2.8875    0.0000 C   0  0  0  0  0  0  0  0  0  0  0  0
   11.4315   -2.4750    0.0000 C   0  0  0  0  0  0  0  0  0  0  0  0
   10.7171   -3.7125    0.0000 C   0  0  0  0  0  0  0  0  0  0  0  0
    2.8579   -1.6500    0.0000 C   0  0  0  0  0  0  0  0  0  0  0  0
    2.1434   -1.2375    0.0000 C   0  0  0  0  0  0  0  0  0  0  0  0
    1.4289   -1.6500    0.0000 C   0  0  0  0  0  0  0  0  0  0  0  0
    0.7145   -1.2375    0.0000 C   0  0  0  0  0  0  0  0  0  0  0  0
    0.0000   -1.6500    0.0000 O   0  0  0  0  0  0  0  0  0  0  0  0
   -0.7145   -1.2375    0.0000 C   0  0  0  0  0  0  0  0  0  0  0  0
  1  2  1  0  0  0  0
  2  3  1  0  0  0  0
  3  4  2  0  0  0  0
  3 36  1  0  0  0  0
  4  5  1  0  0  0  0
  5  6  1  0  0  0  0
  5 34  2  0  0  0  0
  6  7  1  0  0  0  0
  7  8  1  0  0  0  0
  8  9  1  0  0  0  0
  8 33  1  0  0  0  0
  9 10  1  0  0  0  0
 10 11  1  0  0  0  0
 11 12  1  0  0  0  0
 12 13  2  0  0  0  0
 12 14  1  0  0  0  0
 14 15  2  0  0  0  0
 14 20  1  0  0  0  0
 15 16  1  0  0  0  0
 16 17  2  0  0  0  0
 17 18  1  0  0  0  0
 18 19  1  0  0  0  0
 18 20  2  0  0  0  0
 20 21  1  0  0  0  0
 21 22  1  0  0  0  0
 22 23  2  0  0  0  0
 22 24  1  0  0  0  0
 24 25  2  0  0  0  0
 24 29  1  0  0  0  0
 25 26  1  0  0  0  0
 26 27  2  0  0  0  0
 27 28  1  0  0  0  0
 27 30  1  0  0  0  0
 28 29  2  0  0  0  0
 30 31  1  0  0  0  0
 30 32  1  0  0  0  0
 33 34  1  0  0  0  0
 34 35  1  0  0  0  0
 35 36  2  0  0  0  0
 36 37  1  0  0  0  0
 37 38  1  0  0  0  0
M  END
$$$$

 OpenBabel12191814062D

 38 41  0  0  0  0  0  0  0  0999 V2000
   -0.7145   -0.4125    0.0000 C   0  0  0  0  0  0  0  0  0  0  0  0
    0.0000    0.0000    0.0000 O   0  0  0  0  0  0  0  0  0  0  0  0
    0.7145   -0.4125    0.0000 C   0  0  0  0  0  0  0  0  0  0  0  0
    1.4289    0.0000    0.0000 C   0  0  0  0  0  0  0  0  0  0  0  0
    2.1434   -0.4125    0.0000 C   0  0  0  0  0  0  0  0  0  0  0  0
    2.8579    0.0000    0.0000 C   0  0  0  0  0  0  0  0  0  0  0  0
    3.5724   -0.4125    0.0000 C   0  0  0  0  0  0  0  0  0  0  0  0
    3.5724   -1.2375    0.0000 N   0  0  0  0  0  0  0  0  0  0  0  0
    4.2868   -1.6500    0.0000 C   0  0  0  0  0  0  0  0  0  0  0  0
    4.2868   -2.4750    0.0000 C   0  0  0  0  0  0  0  0  0  0  0  0
    5.0013   -2.8875    0.0000 N   0  0  0  0  0  0  0  0  0  0  0  0
    5.7158   -2.4750    0.0000 C   0  0  0  0  0  0  0  0  0  0  0  0
    6.4302   -2.8875    0.0000 O   0  0  0  0  0  0  0  0  0  0  0  0
    5.7158   -1.6500    0.0000 C   0  0  0  0  0  0  0  0  0  0  0  0
    5.0013   -1.2375    0.0000 C   0  0  0  0  0  0  0  0  0  0  0  0
    5.0013   -0.4125    0.0000 C   0  0  0  0  0  0  0  0  0  0  0  0
    5.7158   -0.0000    0.0000 C   0  0  0  0  0  0  0  0  0  0  0  0
    6.4302   -0.4125    0.0000 C   0  0  0  0  0  0  0  0  0  0  0  0
    7.1447   -0.0000    0.0000 Cl  0  0  0  0  0  0  0  0  0  0  0  0
    6.4302   -1.2375    0.0000 C   0  0  0  0  0  0  0  0  0  0  0  0
    7.1447   -1.6500    0.0000 N   0  0  0  0  0  0  0  0  0  0  0  0
    7.8592   -1.2375    0.0000 C   0  0  0  0  0  0  0  0  0  0  0  0
    7.8592   -0.4125    0.0000 O   0  0  0  0  0  0  0  0  0  0  0  0
    8.5737   -1.6500    0.0000 C   0  0  0  0  0  0  0  0  0  0  0  0
    9.2881   -1.2375    0.0000 C   0  0  0  0  0  0  0  0  0  0  0  0
   10.0026   -1.6500    0.0000 C   0  0  0  0  0  0  0  0  0  0  0  0
   10.0026   -2.4750    0.0000 C   0  0  0  0  0  0  0  0  0  0  0  0
    9.2881   -2.8875    0.0000 C   0  0  0  0  0  0  0  0  0  0  0  0
    8.5737   -2.4750    0.0000 C   0  0  0  0  0  0  0  0  0  0  0  0
   10.7171   -2.8875    0.0000 C   0  0  0  0  0  0  0  0  0  0  0  0
   11.4315   -2.4750    0.0000 C   0  0  0  0  0  0  0  0  0  0  0  0
   10.7171   -3.7125    0.0000 C   0  0  0  0  0  0  0  0  0  0  0  0
    2.8579   -1.6500    0.0000 C   0  0  0  0  0  0  0  0  0  0  0  0
    2.1434   -1.2375    0.0000 C   0  0  0  0  0  0  0  0  0  0  0  0
    1.4289   -1.6500    0.0000 C   0  0  0  0  0  0  0  0  0  0  0  0
    0.7145   -1.2375    0.0000 C   0  0  0  0  0  0  0  0  0  0  0  0
    0.0000   -1.6500    0.0000 O   0  0  0  0  0  0  0  0  0  0  0  0
   -0.7145   -1.2375    0.0000 C   0  0  0  0  0  0  0  0  0  0  0  0
  1  2  1  0  0  0  0
  2  3  1  0  0  0  0
  3  4  2  0  0  0  0
  3 36  1  0  0  0  0
  4  5  1  0  0  0  0
  5  6  1  0  0  0  0
  5 34  2  0  0  0  0
  6  7  1  0  0  0  0
  7  8  1  0  0  0  0
  8  9  1  0  0  0  0
  8 33  1  0  0  0  0
  9 10  1  0  0  0  0
 10 11  1  0  0  0  0
 11 12  1  0  0  0  0
 12 13  2  0  0  0  0
 12 14  1  0  0  0  0
 14 15  2  0  0  0  0
 14 20  1  0  0  0  0
 15 16  1  0  0  0  0
 16 17  2  0  0  0  0
 17 18  1  0  0  0  0
 18 19  1  0  0  0  0
 18 20  2  0  0  0  0
 20 21  1  0  0  0  0
 21 22  1  0  0  0  0
 22 23  2  0  0  0  0
 22 24  1  0  0  0  0
 24 25  2  0  0  0  0
 24 29  1  0  0  0  0
 25 26  1  0  0  0  0
 26 27  2  0  0  0  0
 27 28  1  0  0  0  0
 27 30  1  0  0  0  0
 28 29  2  0  0  0  0
 30 31  1  0  0  0  0
 30 32  1  0  0  0  0
 33 34  1  0  0  0  0
 34 35  1  0  0  0  0
 35 36  2  0  0  0  0
 36 37  1  0  0  0  0
 37 38  1  0  0  0  0
M  END
$$$$

 OpenBabel12191814062D

 38 42  0  0  0  0  0  0  0  0999 V2000
    5.7158   -1.6500    0.0000 C   0  0  0  0  0  0  0  0  0  0  0  0
    6.4302   -1.2375    0.0000 O   0  0  0  0  0  0  0  0  0  0  0  0
    7.1447   -1.6500    0.0000 C   0  0  0  0  0  0  0  0  0  0  0  0
    7.8592   -1.2375    0.0000 C   0  0  0  0  0  0  0  0  0  0  0  0
    8.5737   -1.6500    0.0000 C   0  0  0  0  0  0  0  0  0  0  0  0
    9.2881   -1.2375    0.0000 C   0  0  0  0  0  0  0  0  0  0  0  0
   10.0026   -1.6500    0.0000 C   0  0  0  0  0  0  0  0  0  0  0  0
   10.0026   -2.4750    0.0000 N   0  0  0  0  0  0  0  0  0  0  0  0
   10.7171   -2.8875    0.0000 C   0  0  0  0  0  0  0  0  0  0  0  0
   10.7171   -3.7125    0.0000 C   0  0  0  0  0  0  0  0  0  0  0  0
   11.4315   -4.1250    0.0000 N   0  0  0  0  0  0  0  0  0  0  0  0
   11.4315   -4.9500    0.0000 C   0  0  0  0  0  0  0  0  0  0  0  0
   10.7171   -5.3625    0.0000 O   0  0  0  0  0  0  0  0  0  0  0  0
   12.1460   -5.3625    0.0000 C   0  0  0  0  0  0  0  0  0  0  0  0
   12.8605   -4.9500    0.0000 C   0  0  0  0  0  0  0  0  0  0  0  0
   13.5749   -5.3625    0.0000 C   0  0  0  0  0  0  0  0  0  0  0  0
   13.5749   -6.1875    0.0000 C   0  0  0  0  0  0  0  0  0  0  0  0
   12.8605   -6.6000    0.0000 C   0  0  0  0  0  0  0  0  0  0  0  0
   12.1460   -6.1875    0.0000 C   0  0  0  0  0  0  0  0  0  0  0  0
   11.4315   -6.6000    0.0000 N   0  0  0  0  0  0  0  0  0  0  0  0
   11.4315   -7.4250    0.0000 C   0  0  0  0  0  0  0  0  0  0  0  0
   12.1460   -7.8375    0.0000 O   0  0  0  0  0  0  0  0  0  0  0  0
   10.7171   -7.8375    0.0000 C   0  0  0  0  0  0  0  0  0  0  0  0
   10.7171   -8.6625    0.0000 C   0  0  0  0  0  0  0  0  0  0  0  0
   10.0026   -9.0750    0.0000 C   0  0  0  0  0  0  0  0  0  0  0  0
   10.0026   -9.9000    0.0000 C   0  0  0  0  0  0  0  0  0  0  0  0
    9.2881  -10.3125    0.0000 C   0  0  0  0  0  0  0  0  0  0  0  0
    8.5737   -9.9000    0.0000 C   0  0  0  0  0  0  0  0  0  0  0  0
    8.5737   -9.0750    0.0000 C   0  0  0  0  0  0  0  0  0  0  0  0
    9.2881   -8.6625    0.0000 C   0  0  0  0  0  0  0  0  0  0  0  0
    9.2881   -7.8375    0.0000 C   0  0  0  0  0  0  0  0  0  0  0  0
   10.0026   -7.4250    0.0000 N   0  0  0  0  0  0  0  0  0  0  0  0
    9.2881   -2.8875    0.0000 C   0  0  0  0  0  0  0  0  0  0  0  0
    8.5737   -2.4750    0.0000 C   0  0  0  0  0  0  0  0  0  0  0  0
    7.8592   -2.8875    0.0000 C   0  0  0  0  0  0  0  0  0  0  0  0
    7.1447   -2.4750    0.0000 C   0  0  0  0  0  0  0  0  0  0  0  0
    6.4302   -2.8875    0.0000 O   0  0  0  0  0  0  0  0  0  0  0  0
    5.7158   -2.4750    0.0000 C   0  0  0  0  0  0  0  0  0  0  0  0
  1  2  1  0  0  0  0
  2  3  1  0  0  0  0
  3  4  2  0  0  0  0
  3 36  1  0  0  0  0
  4  5  1  0  0  0  0
  5  6  1  0  0  0  0
  5 34  2  0  0  0  0
  6  7  1  0  0  0  0
  7  8  1  0  0  0  0
  8  9  1  0  0  0  0
  8 33  1  0  0  0  0
  9 10  1  0  0  0  0
 10 11  1  0  0  0  0
 11 12  1  0  0  0  0
 12 13  2  0  0  0  0
 12 14  1  0  0  0  0
 14 15  2  0  0  0  0
 14 19  1  0  0  0  0
 15 16  1  0  0  0  0
 16 17  2  0  0  0  0
 17 18  1  0  0  0  0
 18 19  2  0  0  0  0
 19 20  1  0  0  0  0
 20 21  1  0  0  0  0
 21 22  2  0  0  0  0
 21 23  1  0  0  0  0
 23 24  2  0  0  0  0
 23 32  1  0  0  0  0
 24 25  1  0  0  0  0
 25 26  2  0  0  0  0
 25 30  1  0  0  0  0
 26 27  1  0  0  0  0
 27 28  2  0  0  0  0
 28 29  1  0  0  0  0
 29 30  2  0  0  0  0
 30 31  1  0  0  0  0
 31 32  2  0  0  0  0
 33 34  1  0  0  0  0
 34 35  1  0  0  0  0
 35 36  2  0  0  0  0
 36 37  1  0  0  0  0
 37 38  1  0  0  0  0
M  END
$$$$

 OpenBabel12191814062D

 35 38  0  0  0  0  0  0  0  0999 V2000
   -0.7145   -0.4125    0.0000 C   0  0  0  0  0  0  0  0  0  0  0  0
    0.0000    0.0000    0.0000 O   0  0  0  0  0  0  0  0  0  0  0  0
    0.7145   -0.4125    0.0000 C   0  0  0  0  0  0  0  0  0  0  0  0
    1.4289    0.0000    0.0000 C   0  0  0  0  0  0  0  0  0  0  0  0
    2.1434   -0.4125    0.0000 C   0  0  0  0  0  0  0  0  0  0  0  0
    2.8579    0.0000    0.0000 C   0  0  0  0  0  0  0  0  0  0  0  0
    3.5724   -0.4125    0.0000 C   0  0  0  0  0  0  0  0  0  0  0  0
    3.5724   -1.2375    0.0000 N   0  0  0  0  0  0  0  0  0  0  0  0
    4.2868   -1.6500    0.0000 C   0  0  0  0  0  0  0  0  0  0  0  0
    4.2868   -2.4750    0.0000 C   0  0  0  0  0  0  0  0  0  0  0  0
    5.0013   -2.8875    0.0000 N   0  0  0  0  0  0  0  0  0  0  0  0
    5.0013   -3.7125    0.0000 C   0  0  0  0  0  0  0  0  0  0  0  0
    4.2868   -4.1250    0.0000 O   0  0  0  0  0  0  0  0  0  0  0  0
    5.7158   -4.1250    0.0000 C   0  0  0  0  0  0  0  0  0  0  0  0
    6.4302   -3.7125    0.0000 C   0  0  0  0  0  0  0  0  0  0  0  0
    7.1447   -4.1250    0.0000 C   0  0  0  0  0  0  0  0  0  0  0  0
    7.1447   -4.9500    0.0000 C   0  0  0  0  0  0  0  0  0  0  0  0
    6.4302   -5.3625    0.0000 C   0  0  0  0  0  0  0  0  0  0  0  0
    5.7158   -4.9500    0.0000 C   0  0  0  0  0  0  0  0  0  0  0  0
    5.0013   -5.3625    0.0000 N   0  0  0  0  0  0  0  0  0  0  0  0
    5.0013   -6.1875    0.0000 C   0  0  0  0  0  0  0  0  0  0  0  0
    4.2868   -6.6000    0.0000 O   0  0  0  0  0  0  0  0  0  0  0  0
    5.7158   -6.6000    0.0000 C   0  0  0  0  0  0  0  0  0  0  0  0
    6.4302   -6.1875    0.0000 C   0  0  0  0  0  0  0  0  0  0  0  0
    7.1447   -6.6000    0.0000 C   0  0  0  0  0  0  0  0  0  0  0  0
    7.1447   -7.4250    0.0000 C   0  0  0  0  0  0  0  0  0  0  0  0
    7.8592   -7.8375    0.0000 Br  0  0  0  0  0  0  0  0  0  0  0  0
    6.4302   -7.8375    0.0000 C   0  0  0  0  0  0  0  0  0  0  0  0
    5.7158   -7.4250    0.0000 C   0  0  0  0  0  0  0  0  0  0  0  0
    2.8579   -1.6500    0.0000 C   0  0  0  0  0  0  0  0  0  0  0  0
    2.1434   -1.2375    0.0000 C   0  0  0  0  0  0  0  0  0  0  0  0
    1.4289   -1.6500    0.0000 C   0  0  0  0  0  0  0  0  0  0  0  0
    0.7145   -1.2375    0.0000 C   0  0  0  0  0  0  0  0  0  0  0  0
    0.0000   -1.6500    0.0000 O   0  0  0  0  0  0  0  0  0  0  0  0
   -0.7145   -1.2375    0.0000 C   0  0  0  0  0  0  0  0  0  0  0  0
  1  2  1  0  0  0  0
  2  3  1  0  0  0  0
  3  4  2  0  0  0  0
  3 33  1  0  0  0  0
  4  5  1  0  0  0  0
  5  6  1  0  0  0  0
  5 31  2  0  0  0  0
  6  7  1  0  0  0  0
  7  8  1  0  0  0  0
  8  9  1  0  0  0  0
  8 30  1  0  0  0  0
  9 10  1  0  0  0  0
 10 11  1  0  0  0  0
 11 12  1  0  0  0  0
 12 13  2  0  0  0  0
 12 14  1  0  0  0  0
 14 15  2  0  0  0  0
 14 19  1  0  0  0  0
 15 16  1  0  0  0  0
 16 17  2  0  0  0  0
 17 18  1  0  0  0  0
 18 19  2  0  0  0  0
 19 20  1  0  0  0  0
 20 21  1  0  0  0  0
 21 22  2  0  0  0  0
 21 23  1  0  0  0  0
 23 24  2  0  0  0  0
 23 29  1  0  0  0  0
 24 25  1  0  0  0  0
 25 26  2  0  0  0  0
 26 27  1  0  0  0  0
 26 28  1  0  0  0  0
 28 29  2  0  0  0  0
 30 31  1  0  0  0  0
 31 32  1  0  0  0  0
 32 33  2  0  0  0  0
 33 34  1  0  0  0  0
 34 35  1  0  0  0  0
M  END
$$$$

 OpenBabel12191814062D

 42 46  0  0  0  0  0  0  0  0999 V2000
   -0.7145   -0.4125    0.0000 C   0  0  0  0  0  0  0  0  0  0  0  0
    0.0000    0.0000    0.0000 O   0  0  0  0  0  0  0  0  0  0  0  0
    0.7145   -0.4125    0.0000 C   0  0  0  0  0  0  0  0  0  0  0  0
    1.4289    0.0000    0.0000 C   0  0  0  0  0  0  0  0  0  0  0  0
    2.1434   -0.4125    0.0000 C   0  0  0  0  0  0  0  0  0  0  0  0
    2.8579    0.0000    0.0000 C   0  0  0  0  0  0  0  0  0  0  0  0
    3.5724   -0.4125    0.0000 C   0  0  0  0  0  0  0  0  0  0  0  0
    3.5724   -1.2375    0.0000 N   0  0  0  0  0  0  0  0  0  0  0  0
    4.2868   -1.6500    0.0000 C   0  0  0  0  0  0  0  0  0  0  0  0
    4.2868   -2.4750    0.0000 C   0  0  0  0  0  0  0  0  0  0  0  0
    5.0013   -2.8875    0.0000 N   0  0  0  0  0  0  0  0  0  0  0  0
    5.0013   -3.7125    0.0000 C   0  0  0  0  0  0  0  0  0  0  0  0
    4.2868   -4.1250    0.0000 O   0  0  0  0  0  0  0  0  0  0  0  0
    5.7158   -4.1250    0.0000 C   0  0  0  0  0  0  0  0  0  0  0  0
    6.4302   -3.7125    0.0000 C   0  0  0  0  0  0  0  0  0  0  0  0
    7.1447   -4.1250    0.0000 C   0  0  0  0  0  0  0  0  0  0  0  0
    7.1447   -4.9500    0.0000 C   0  0  0  0  0  0  0  0  0  0  0  0
    6.4302   -5.3625    0.0000 C   0  0  0  0  0  0  0  0  0  0  0  0
    5.7158   -4.9500    0.0000 C   0  0  0  0  0  0  0  0  0  0  0  0
    5.0013   -5.3625    0.0000 N   0  0  0  0  0  0  0  0  0  0  0  0
    5.0013   -6.1875    0.0000 C   0  0  0  0  0  0  0  0  0  0  0  0
    5.7158   -6.6000    0.0000 O   0  0  0  0  0  0  0  0  0  0  0  0
    4.2868   -6.6000    0.0000 C   0  0  0  0  0  0  0  0  0  0  0  0
    4.2868   -7.4250    0.0000 C   0  0  0  0  0  0  0  0  0  0  0  0
    3.5724   -7.8375    0.0000 C   0  0  0  0  0  0  0  0  0  0  0  0
    2.8579   -7.4250    0.0000 C   0  0  0  0  0  0  0  0  0  0  0  0
    2.8579   -6.6000    0.0000 C   0  0  0  0  0  0  0  0  0  0  0  0
    3.5724   -6.1875    0.0000 C   0  0  0  0  0  0  0  0  0  0  0  0
    2.1434   -7.8375    0.0000 C   0  0  0  0  0  0  0  0  0  0  0  0
    1.4289   -7.4250    0.0000 O   0  0  0  0  0  0  0  0  0  0  0  0
    2.1434   -8.6625    0.0000 C   0  0  0  0  0  0  0  0  0  0  0  0
    2.8579   -9.0750    0.0000 C   0  0  0  0  0  0  0  0  0  0  0  0
    2.8579   -9.9000    0.0000 C   0  0  0  0  0  0  0  0  0  0  0  0
    2.1434  -10.3125    0.0000 C   0  0  0  0  0  0  0  0  0  0  0  0
    1.4289   -9.9000    0.0000 C   0  0  0  0  0  0  0  0  0  0  0  0
    1.4289   -9.0750    0.0000 C   0  0  0  0  0  0  0  0  0  0  0  0
    2.8579   -1.6500    0.0000 C   0  0  0  0  0  0  0  0  0  0  0  0
    2.1434   -1.2375    0.0000 C   0  0  0  0  0  0  0  0  0  0  0  0
    1.4289   -1.6500    0.0000 C   0  0  0  0  0  0  0  0  0  0  0  0
    0.7145   -1.2375    0.0000 C   0  0  0  0  0  0  0  0  0  0  0  0
    0.0000   -1.6500    0.0000 O   0  0  0  0  0  0  0  0  0  0  0  0
   -0.7145   -1.2375    0.0000 C   0  0  0  0  0  0  0  0  0  0  0  0
  1  2  1  0  0  0  0
  2  3  1  0  0  0  0
  3  4  2  0  0  0  0
  3 40  1  0  0  0  0
  4  5  1  0  0  0  0
  5  6  1  0  0  0  0
  5 38  2  0  0  0  0
  6  7  1  0  0  0  0
  7  8  1  0  0  0  0
  8  9  1  0  0  0  0
  8 37  1  0  0  0  0
  9 10  1  0  0  0  0
 10 11  1  0  0  0  0
 11 12  1  0  0  0  0
 12 13  2  0  0  0  0
 12 14  1  0  0  0  0
 14 15  2  0  0  0  0
 14 19  1  0  0  0  0
 15 16  1  0  0  0  0
 16 17  2  0  0  0  0
 17 18  1  0  0  0  0
 18 19  2  0  0  0  0
 19 20  1  0  0  0  0
 20 21  1  0  0  0  0
 21 22  2  0  0  0  0
 21 23  1  0  0  0  0
 23 24  2  0  0  0  0
 23 28  1  0  0  0  0
 24 25  1  0  0  0  0
 25 26  2  0  0  0  0
 26 27  1  0  0  0  0
 26 29  1  0  0  0  0
 27 28  2  0  0  0  0
 29 30  2  0  0  0  0
 29 31  1  0  0  0  0
 31 32  2  0  0  0  0
 31 36  1  0  0  0  0
 32 33  1  0  0  0  0
 33 34  2  0  0  0  0
 34 35  1  0  0  0  0
 35 36  2  0  0  0  0
 37 38  1  0  0  0  0
 38 39  1  0  0  0  0
 39 40  2  0  0  0  0
 40 41  1  0  0  0  0
 41 42  1  0  0  0  0
M  END
$$$$

 OpenBabel12191814062D

 38 41  0  0  0  0  0  0  0  0999 V2000
   -0.7145   -0.4125    0.0000 C   0  0  0  0  0  0  0  0  0  0  0  0
    0.0000    0.0000    0.0000 O   0  0  0  0  0  0  0  0  0  0  0  0
    0.7145   -0.4125    0.0000 C   0  0  0  0  0  0  0  0  0  0  0  0
    1.4289    0.0000    0.0000 C   0  0  0  0  0  0  0  0  0  0  0  0
    2.1434   -0.4125    0.0000 C   0  0  0  0  0  0  0  0  0  0  0  0
    2.8579    0.0000    0.0000 C   0  0  0  0  0  0  0  0  0  0  0  0
    3.5724   -0.4125    0.0000 C   0  0  0  0  0  0  0  0  0  0  0  0
    3.5724   -1.2375    0.0000 N   0  0  0  0  0  0  0  0  0  0  0  0
    4.2868   -1.6500    0.0000 C   0  0  0  0  0  0  0  0  0  0  0  0
    4.2868   -2.4750    0.0000 C   0  0  0  0  0  0  0  0  0  0  0  0
    5.0013   -2.8875    0.0000 N   0  0  0  0  0  0  0  0  0  0  0  0
    5.0013   -3.7125    0.0000 C   0  0  0  0  0  0  0  0  0  0  0  0
    4.2868   -4.1250    0.0000 O   0  0  0  0  0  0  0  0  0  0  0  0
    5.7158   -4.1250    0.0000 C   0  0  0  0  0  0  0  0  0  0  0  0
    6.4302   -3.7125    0.0000 C   0  0  0  0  0  0  0  0  0  0  0  0
    7.1447   -4.1250    0.0000 C   0  0  0  0  0  0  0  0  0  0  0  0
    7.1447   -4.9500    0.0000 C   0  0  0  0  0  0  0  0  0  0  0  0
    6.4302   -5.3625    0.0000 C   0  0  0  0  0  0  0  0  0  0  0  0
    5.7158   -4.9500    0.0000 C   0  0  0  0  0  0  0  0  0  0  0  0
    5.0013   -5.3625    0.0000 N   0  0  0  0  0  0  0  0  0  0  0  0
    5.0013   -6.1875    0.0000 C   0  0  0  0  0  0  0  0  0  0  0  0
    4.2868   -6.6000    0.0000 O   0  0  0  0  0  0  0  0  0  0  0  0
    5.7158   -6.6000    0.0000 C   0  0  0  0  0  0  0  0  0  0  0  0
    6.4302   -6.1875    0.0000 C   0  0  0  0  0  0  0  0  0  0  0  0
    7.1447   -6.6000    0.0000 C   0  0  0  0  0  0  0  0  0  0  0  0
    7.1447   -7.4250    0.0000 C   0  0  0  0  0  0  0  0  0  0  0  0
    6.4302   -7.8375    0.0000 C   0  0  0  0  0  0  0  0  0  0  0  0
    5.7158   -7.4250    0.0000 C   0  0  0  0  0  0  0  0  0  0  0  0
    7.8592   -7.8375    0.0000 C   0  0  0  0  0  0  0  0  0  0  0  0
    8.5737   -8.2500    0.0000 C   0  0  0  0  0  0  0  0  0  0  0  0
    7.4467   -8.5520    0.0000 C   0  0  0  0  0  0  0  0  0  0  0  0
    8.2717   -7.1230    0.0000 C   0  0  0  0  0  0  0  0  0  0  0  0
    2.8579   -1.6500    0.0000 C   0  0  0  0  0  0  0  0  0  0  0  0
    2.1434   -1.2375    0.0000 C   0  0  0  0  0  0  0  0  0  0  0  0
    1.4289   -1.6500    0.0000 C   0  0  0  0  0  0  0  0  0  0  0  0
    0.7145   -1.2375    0.0000 C   0  0  0  0  0  0  0  0  0  0  0  0
    0.0000   -1.6500    0.0000 O   0  0  0  0  0  0  0  0  0  0  0  0
   -0.7145   -1.2375    0.0000 C   0  0  0  0  0  0  0  0  0  0  0  0
  1  2  1  0  0  0  0
  2  3  1  0  0  0  0
  3  4  2  0  0  0  0
  3 36  1  0  0  0  0
  4  5  1  0  0  0  0
  5  6  1  0  0  0  0
  5 34  2  0  0  0  0
  6  7  1  0  0  0  0
  7  8  1  0  0  0  0
  8  9  1  0  0  0  0
  8 33  1  0  0  0  0
  9 10  1  0  0  0  0
 10 11  1  0  0  0  0
 11 12  1  0  0  0  0
 12 13  2  0  0  0  0
 12 14  1  0  0  0  0
 14 15  2  0  0  0  0
 14 19  1  0  0  0  0
 15 16  1  0  0  0  0
 16 17  2  0  0  0  0
 17 18  1  0  0  0  0
 18 19  2  0  0  0  0
 19 20  1  0  0  0  0
 20 21  1  0  0  0  0
 21 22  2  0  0  0  0
 21 23  1  0  0  0  0
 23 24  2  0  0  0  0
 23 28  1  0  0  0  0
 24 25  1  0  0  0  0
 25 26  2  0  0  0  0
 26 27  1  0  0  0  0
 26 29  1  0  0  0  0
 27 28  2  0  0  0  0
 29 30  1  0  0  0  0
 29 31  1  0  0  0  0
 29 32  1  0  0  0  0
 33 34  1  0  0  0  0
 34 35  1  0  0  0  0
 35 36  2  0  0  0  0
 36 37  1  0  0  0  0
 37 38  1  0  0  0  0
M  END
$$$$

 OpenBabel12191814062D

 40 44  0  0  0  0  0  0  0  0999 V2000
   -0.7145   -0.4125    0.0000 C   0  0  0  0  0  0  0  0  0  0  0  0
    0.0000    0.0000    0.0000 O   0  0  0  0  0  0  0  0  0  0  0  0
    0.7145   -0.4125    0.0000 C   0  0  0  0  0  0  0  0  0  0  0  0
    1.4289    0.0000    0.0000 C   0  0  0  0  0  0  0  0  0  0  0  0
    2.1434   -0.4125    0.0000 C   0  0  0  0  0  0  0  0  0  0  0  0
    2.8579    0.0000    0.0000 C   0  0  0  0  0  0  0  0  0  0  0  0
    3.5724   -0.4125    0.0000 C   0  0  0  0  0  0  0  0  0  0  0  0
    3.5724   -1.2375    0.0000 N   0  0  0  0  0  0  0  0  0  0  0  0
    4.2868   -1.6500    0.0000 C   0  0  0  0  0  0  0  0  0  0  0  0
    4.2868   -2.4750    0.0000 C   0  0  0  0  0  0  0  0  0  0  0  0
    5.0013   -2.8875    0.0000 N   0  0  0  0  0  0  0  0  0  0  0  0
    5.0013   -3.7125    0.0000 C   0  0  0  0  0  0  0  0  0  0  0  0
    4.2868   -4.1250    0.0000 O   0  0  0  0  0  0  0  0  0  0  0  0
    5.7158   -4.1250    0.0000 C   0  0  0  0  0  0  0  0  0  0  0  0
    6.4302   -3.7125    0.0000 C   0  0  0  0  0  0  0  0  0  0  0  0
    7.1447   -4.1250    0.0000 C   0  0  0  0  0  0  0  0  0  0  0  0
    7.1447   -4.9500    0.0000 C   0  0  0  0  0  0  0  0  0  0  0  0
    6.4302   -5.3625    0.0000 C   0  0  0  0  0  0  0  0  0  0  0  0
    5.7158   -4.9500    0.0000 C   0  0  0  0  0  0  0  0  0  0  0  0
    5.0013   -5.3625    0.0000 N   0  0  0  0  0  0  0  0  0  0  0  0
    5.0013   -6.1875    0.0000 C   0  0  0  0  0  0  0  0  0  0  0  0
    4.2868   -6.6000    0.0000 O   0  0  0  0  0  0  0  0  0  0  0  0
    5.7158   -6.6000    0.0000 C   0  0  0  0  0  0  0  0  0  0  0  0
    6.4302   -6.1875    0.0000 C   0  0  0  0  0  0  0  0  0  0  0  0
    7.1447   -6.6000    0.0000 C   0  0  0  0  0  0  0  0  0  0  0  0
    7.1447   -7.4250    0.0000 C   0  0  0  0  0  0  0  0  0  0  0  0
    6.4302   -7.8375    0.0000 C   0  0  0  0  0  0  0  0  0  0  0  0
    5.7158   -7.4250    0.0000 C   0  0  0  0  0  0  0  0  0  0  0  0
    7.8592   -7.8375    0.0000 C   0  0  0  0  0  0  0  0  0  0  0  0
    8.5737   -7.4250    0.0000 C   0  0  0  0  0  0  0  0  0  0  0  0
    9.2881   -7.8375    0.0000 C   0  0  0  0  0  0  0  0  0  0  0  0
    9.2881   -8.6625    0.0000 C   0  0  0  0  0  0  0  0  0  0  0  0
    8.5737   -9.0750    0.0000 C   0  0  0  0  0  0  0  0  0  0  0  0
    7.8592   -8.6625    0.0000 C   0  0  0  0  0  0  0  0  0  0  0  0
    2.8579   -1.6500    0.0000 C   0  0  0  0  0  0  0  0  0  0  0  0
    2.1434   -1.2375    0.0000 C   0  0  0  0  0  0  0  0  0  0  0  0
    1.4289   -1.6500    0.0000 C   0  0  0  0  0  0  0  0  0  0  0  0
    0.7145   -1.2375    0.0000 C   0  0  0  0  0  0  0  0  0  0  0  0
    0.0000   -1.6500    0.0000 O   0  0  0  0  0  0  0  0  0  0  0  0
   -0.7145   -1.2375    0.0000 C   0  0  0  0  0  0  0  0  0  0  0  0
  1  2  1  0  0  0  0
  2  3  1  0  0  0  0
  3  4  2  0  0  0  0
  3 38  1  0  0  0  0
  4  5  1  0  0  0  0
  5  6  1  0  0  0  0
  5 36  2  0  0  0  0
  6  7  1  0  0  0  0
  7  8  1  0  0  0  0
  8  9  1  0  0  0  0
  8 35  1  0  0  0  0
  9 10  1  0  0  0  0
 10 11  1  0  0  0  0
 11 12  1  0  0  0  0
 12 13  2  0  0  0  0
 12 14  1  0  0  0  0
 14 15  2  0  0  0  0
 14 19  1  0  0  0  0
 15 16  1  0  0  0  0
 16 17  2  0  0  0  0
 17 18  1  0  0  0  0
 18 19  2  0  0  0  0
 19 20  1  0  0  0  0
 20 21  1  0  0  0  0
 21 22  2  0  0  0  0
 21 23  1  0  0  0  0
 23 24  2  0  0  0  0
 23 28  1  0  0  0  0
 24 25  1  0  0  0  0
 25 26  2  0  0  0  0
 26 27  1  0  0  0  0
 26 29  1  0  0  0  0
 27 28  2  0  0  0  0
 29 30  1  0  0  0  0
 29 34  1  0  0  0  0
 30 31  1  0  0  0  0
 31 32  1  0  0  0  0
 32 33  1  0  0  0  0
 33 34  1  0  0  0  0
 35 36  1  0  0  0  0
 36 37  1  0  0  0  0
 37 38  2  0  0  0  0
 38 39  1  0  0  0  0
 39 40  1  0  0  0  0
M  END
$$$$

 OpenBabel12191814062D

 40 44  0  0  0  0  0  0  0  0999 V2000
   -0.7145   -0.4125    0.0000 C   0  0  0  0  0  0  0  0  0  0  0  0
    0.0000    0.0000    0.0000 O   0  0  0  0  0  0  0  0  0  0  0  0
    0.7145   -0.4125    0.0000 C   0  0  0  0  0  0  0  0  0  0  0  0
    1.4289    0.0000    0.0000 C   0  0  0  0  0  0  0  0  0  0  0  0
    2.1434   -0.4125    0.0000 C   0  0  0  0  0  0  0  0  0  0  0  0
    2.8579    0.0000    0.0000 C   0  0  0  0  0  0  0  0  0  0  0  0
    3.5724   -0.4125    0.0000 C   0  0  0  0  0  0  0  0  0  0  0  0
    3.5724   -1.2375    0.0000 N   0  0  0  0  0  0  0  0  0  0  0  0
    4.2868   -1.6500    0.0000 C   0  0  0  0  0  0  0  0  0  0  0  0
    4.2868   -2.4750    0.0000 C   0  0  0  0  0  0  0  0  0  0  0  0
    5.0013   -2.8875    0.0000 N   0  0  0  0  0  0  0  0  0  0  0  0
    5.0013   -3.7125    0.0000 C   0  0  0  0  0  0  0  0  0  0  0  0
    4.2868   -4.1250    0.0000 O   0  0  0  0  0  0  0  0  0  0  0  0
    5.7158   -4.1250    0.0000 C   0  0  0  0  0  0  0  0  0  0  0  0
    6.4302   -3.7125    0.0000 C   0  0  0  0  0  0  0  0  0  0  0  0
    7.1447   -4.1250    0.0000 C   0  0  0  0  0  0  0  0  0  0  0  0
    7.1447   -4.9500    0.0000 C   0  0  0  0  0  0  0  0  0  0  0  0
    6.4302   -5.3625    0.0000 C   0  0  0  0  0  0  0  0  0  0  0  0
    5.7158   -4.9500    0.0000 C   0  0  0  0  0  0  0  0  0  0  0  0
    5.0013   -5.3625    0.0000 N   0  0  0  0  0  0  0  0  0  0  0  0
    5.0013   -6.1875    0.0000 C   0  0  0  0  0  0  0  0  0  0  0  0
    4.2868   -6.6000    0.0000 O   0  0  0  0  0  0  0  0  0  0  0  0
    5.7158   -6.6000    0.0000 C   0  0  0  0  0  0  0  0  0  0  0  0
    6.4302   -6.1875    0.0000 C   0  0  0  0  0  0  0  0  0  0  0  0
    7.1447   -6.6000    0.0000 C   0  0  0  0  0  0  0  0  0  0  0  0
    7.1447   -7.4250    0.0000 C   0  0  0  0  0  0  0  0  0  0  0  0
    6.4302   -7.8375    0.0000 C   0  0  0  0  0  0  0  0  0  0  0  0
    5.7158   -7.4250    0.0000 C   0  0  0  0  0  0  0  0  0  0  0  0
    7.8592   -7.8375    0.0000 C   0  0  0  0  0  0  0  0  0  0  0  0
    8.5737   -7.4250    0.0000 C   0  0  0  0  0  0  0  0  0  0  0  0
    9.2881   -7.8375    0.0000 C   0  0  0  0  0  0  0  0  0  0  0  0
    9.2881   -8.6625    0.0000 C   0  0  0  0  0  0  0  0  0  0  0  0
    8.5737   -9.0750    0.0000 C   0  0  0  0  0  0  0  0  0  0  0  0
    7.8592   -8.6625    0.0000 C   0  0  0  0  0  0  0  0  0  0  0  0
    2.8579   -1.6500    0.0000 C   0  0  0  0  0  0  0  0  0  0  0  0
    2.1434   -1.2375    0.0000 C   0  0  0  0  0  0  0  0  0  0  0  0
    1.4289   -1.6500    0.0000 C   0  0  0  0  0  0  0  0  0  0  0  0
    0.7145   -1.2375    0.0000 C   0  0  0  0  0  0  0  0  0  0  0  0
    0.0000   -1.6500    0.0000 O   0  0  0  0  0  0  0  0  0  0  0  0
   -0.7145   -1.2375    0.0000 C   0  0  0  0  0  0  0  0  0  0  0  0
  1  2  1  0  0  0  0
  2  3  1  0  0  0  0
  3  4  2  0  0  0  0
  3 38  1  0  0  0  0
  4  5  1  0  0  0  0
  5  6  1  0  0  0  0
  5 36  2  0  0  0  0
  6  7  1  0  0  0  0
  7  8  1  0  0  0  0
  8  9  1  0  0  0  0
  8 35  1  0  0  0  0
  9 10  1  0  0  0  0
 10 11  1  0  0  0  0
 11 12  1  0  0  0  0
 12 13  2  0  0  0  0
 12 14  1  0  0  0  0
 14 15  2  0  0  0  0
 14 19  1  0  0  0  0
 15 16  1  0  0  0  0
 16 17  2  0  0  0  0
 17 18  1  0  0  0  0
 18 19  2  0  0  0  0
 19 20  1  0  0  0  0
 20 21  1  0  0  0  0
 21 22  2  0  0  0  0
 21 23  1  0  0  0  0
 23 24  2  0  0  0  0
 23 28  1  0  0  0  0
 24 25  1  0  0  0  0
 25 26  2  0  0  0  0
 26 27  1  0  0  0  0
 26 29  1  0  0  0  0
 27 28  2  0  0  0  0
 29 30  2  0  0  0  0
 29 34  1  0  0  0  0
 30 31  1  0  0  0  0
 31 32  2  0  0  0  0
 32 33  1  0  0  0  0
 33 34  2  0  0  0  0
 35 36  1  0  0  0  0
 36 37  1  0  0  0  0
 37 38  2  0  0  0  0
 38 39  1  0  0  0  0
 39 40  1  0  0  0  0
M  END
$$$$

 OpenBabel12191814062D

 41 45  0  0  0  0  0  0  0  0999 V2000
   -0.7145   -0.4125    0.0000 C   0  0  0  0  0  0  0  0  0  0  0  0
    0.0000    0.0000    0.0000 O   0  0  0  0  0  0  0  0  0  0  0  0
    0.7145   -0.4125    0.0000 C   0  0  0  0  0  0  0  0  0  0  0  0
    1.4289    0.0000    0.0000 C   0  0  0  0  0  0  0  0  0  0  0  0
    2.1434   -0.4125    0.0000 C   0  0  0  0  0  0  0  0  0  0  0  0
    2.8579    0.0000    0.0000 C   0  0  0  0  0  0  0  0  0  0  0  0
    3.5724   -0.4125    0.0000 C   0  0  0  0  0  0  0  0  0  0  0  0
    3.5724   -1.2375    0.0000 N   0  0  0  0  0  0  0  0  0  0  0  0
    4.2868   -1.6500    0.0000 C   0  0  0  0  0  0  0  0  0  0  0  0
    4.2868   -2.4750    0.0000 C   0  0  0  0  0  0  0  0  0  0  0  0
    5.0013   -2.8875    0.0000 N   0  0  0  0  0  0  0  0  0  0  0  0
    5.0013   -3.7125    0.0000 C   0  0  0  0  0  0  0  0  0  0  0  0
    4.2868   -4.1250    0.0000 O   0  0  0  0  0  0  0  0  0  0  0  0
    5.7158   -4.1250    0.0000 C   0  0  0  0  0  0  0  0  0  0  0  0
    6.4302   -3.7125    0.0000 C   0  0  0  0  0  0  0  0  0  0  0  0
    7.1447   -4.1250    0.0000 C   0  0  0  0  0  0  0  0  0  0  0  0
    7.1447   -4.9500    0.0000 C   0  0  0  0  0  0  0  0  0  0  0  0
    6.4302   -5.3625    0.0000 C   0  0  0  0  0  0  0  0  0  0  0  0
    5.7158   -4.9500    0.0000 C   0  0  0  0  0  0  0  0  0  0  0  0
    5.0013   -5.3625    0.0000 N   0  0  0  0  0  0  0  0  0  0  0  0
    5.0013   -6.1875    0.0000 C   0  0  0  0  0  0  0  0  0  0  0  0
    5.7158   -6.6000    0.0000 O   0  0  0  0  0  0  0  0  0  0  0  0
    4.2868   -6.6000    0.0000 C   0  0  0  0  0  0  0  0  0  0  0  0
    4.2868   -7.4250    0.0000 C   0  0  0  0  0  0  0  0  0  0  0  0
    3.5724   -7.8375    0.0000 C   0  0  0  0  0  0  0  0  0  0  0  0
    2.8579   -7.4250    0.0000 C   0  0  0  0  0  0  0  0  0  0  0  0
    2.1434   -7.8375    0.0000 C   0  0  0  0  0  0  0  0  0  0  0  0
    2.1434   -8.6625    0.0000 C   0  0  0  0  0  0  0  0  0  0  0  0
    2.8579   -9.0750    0.0000 C   0  0  0  0  0  0  0  0  0  0  0  0
    2.8579   -9.9000    0.0000 C   0  0  0  0  0  0  0  0  0  0  0  0
    2.1434  -10.3125    0.0000 C   0  0  0  0  0  0  0  0  0  0  0  0
    1.4289   -9.9000    0.0000 C   0  0  0  0  0  0  0  0  0  0  0  0
    1.4289   -9.0750    0.0000 C   0  0  0  0  0  0  0  0  0  0  0  0
    2.8579   -6.6000    0.0000 C   0  0  0  0  0  0  0  0  0  0  0  0
    3.5724   -6.1875    0.0000 C   0  0  0  0  0  0  0  0  0  0  0  0
    2.8579   -1.6500    0.0000 C   0  0  0  0  0  0  0  0  0  0  0  0
    2.1434   -1.2375    0.0000 C   0  0  0  0  0  0  0  0  0  0  0  0
    1.4289   -1.6500    0.0000 C   0  0  0  0  0  0  0  0  0  0  0  0
    0.7145   -1.2375    0.0000 C   0  0  0  0  0  0  0  0  0  0  0  0
    0.0000   -1.6500    0.0000 O   0  0  0  0  0  0  0  0  0  0  0  0
   -0.7145   -1.2375    0.0000 C   0  0  0  0  0  0  0  0  0  0  0  0
  1  2  1  0  0  0  0
  2  3  1  0  0  0  0
  3  4  2  0  0  0  0
  3 39  1  0  0  0  0
  4  5  1  0  0  0  0
  5  6  1  0  0  0  0
  5 37  2  0  0  0  0
  6  7  1  0  0  0  0
  7  8  1  0  0  0  0
  8  9  1  0  0  0  0
  8 36  1  0  0  0  0
  9 10  1  0  0  0  0
 10 11  1  0  0  0  0
 11 12  1  0  0  0  0
 12 13  2  0  0  0  0
 12 14  1  0  0  0  0
 14 15  2  0  0  0  0
 14 19  1  0  0  0  0
 15 16  1  0  0  0  0
 16 17  2  0  0  0  0
 17 18  1  0  0  0  0
 18 19  2  0  0  0  0
 19 20  1  0  0  0  0
 20 21  1  0  0  0  0
 21 22  2  0  0  0  0
 21 23  1  0  0  0  0
 23 24  2  0  0  0  0
 23 35  1  0  0  0  0
 24 25  1  0  0  0  0
 25 26  2  0  0  0  0
 26 27  1  0  0  0  0
 26 34  1  0  0  0  0
 27 28  1  0  0  0  0
 28 29  2  0  0  0  0
 28 33  1  0  0  0  0
 29 30  1  0  0  0  0
 30 31  2  0  0  0  0
 31 32  1  0  0  0  0
 32 33  2  0  0  0  0
 34 35  2  0  0  0  0
 36 37  1  0  0  0  0
 37 38  1  0  0  0  0
 38 39  2  0  0  0  0
 39 40  1  0  0  0  0
 40 41  1  0  0  0  0
M  END
$$$$

 OpenBabel12191814062D

 41 45  0  0  0  0  0  0  0  0999 V2000
   -0.7145   -0.4125    0.0000 C   0  0  0  0  0  0  0  0  0  0  0  0
    0.0000    0.0000    0.0000 O   0  0  0  0  0  0  0  0  0  0  0  0
    0.7145   -0.4125    0.0000 C   0  0  0  0  0  0  0  0  0  0  0  0
    1.4289    0.0000    0.0000 C   0  0  0  0  0  0  0  0  0  0  0  0
    2.1434   -0.4125    0.0000 C   0  0  0  0  0  0  0  0  0  0  0  0
    2.8579    0.0000    0.0000 C   0  0  0  0  0  0  0  0  0  0  0  0
    3.5724   -0.4125    0.0000 C   0  0  0  0  0  0  0  0  0  0  0  0
    3.5724   -1.2375    0.0000 N   0  0  0  0  0  0  0  0  0  0  0  0
    4.2868   -1.6500    0.0000 C   0  0  0  0  0  0  0  0  0  0  0  0
    4.2868   -2.4750    0.0000 C   0  0  0  0  0  0  0  0  0  0  0  0
    5.0013   -2.8875    0.0000 N   0  0  0  0  0  0  0  0  0  0  0  0
    5.0013   -3.7125    0.0000 C   0  0  0  0  0  0  0  0  0  0  0  0
    4.2868   -4.1250    0.0000 O   0  0  0  0  0  0  0  0  0  0  0  0
    5.7158   -4.1250    0.0000 C   0  0  0  0  0  0  0  0  0  0  0  0
    6.4302   -3.7125    0.0000 C   0  0  0  0  0  0  0  0  0  0  0  0
    7.1447   -4.1250    0.0000 C   0  0  0  0  0  0  0  0  0  0  0  0
    7.1447   -4.9500    0.0000 C   0  0  0  0  0  0  0  0  0  0  0  0
    6.4302   -5.3625    0.0000 C   0  0  0  0  0  0  0  0  0  0  0  0
    5.7158   -4.9500    0.0000 C   0  0  0  0  0  0  0  0  0  0  0  0
    5.0013   -5.3625    0.0000 N   0  0  0  0  0  0  0  0  0  0  0  0
    5.0013   -6.1875    0.0000 C   0  0  0  0  0  0  0  0  0  0  0  0
    5.7158   -6.6000    0.0000 O   0  0  0  0  0  0  0  0  0  0  0  0
    4.2868   -6.6000    0.0000 C   0  0  0  0  0  0  0  0  0  0  0  0
    4.2868   -7.4250    0.0000 C   0  0  0  0  0  0  0  0  0  0  0  0
    3.5724   -7.8375    0.0000 C   0  0  0  0  0  0  0  0  0  0  0  0
    2.8579   -7.4250    0.0000 C   0  0  0  0  0  0  0  0  0  0  0  0
    2.1434   -7.8375    0.0000 O   0  0  0  0  0  0  0  0  0  0  0  0
    2.1434   -8.6625    0.0000 C   0  0  0  0  0  0  0  0  0  0  0  0
    2.8579   -9.0750    0.0000 C   0  0  0  0  0  0  0  0  0  0  0  0
    2.8579   -9.9000    0.0000 C   0  0  0  0  0  0  0  0  0  0  0  0
    2.1434  -10.3125    0.0000 C   0  0  0  0  0  0  0  0  0  0  0  0
    1.4289   -9.9000    0.0000 C   0  0  0  0  0  0  0  0  0  0  0  0
    1.4289   -9.0750    0.0000 C   0  0  0  0  0  0  0  0  0  0  0  0
    2.8579   -6.6000    0.0000 C   0  0  0  0  0  0  0  0  0  0  0  0
    3.5724   -6.1875    0.0000 C   0  0  0  0  0  0  0  0  0  0  0  0
    2.8579   -1.6500    0.0000 C   0  0  0  0  0  0  0  0  0  0  0  0
    2.1434   -1.2375    0.0000 C   0  0  0  0  0  0  0  0  0  0  0  0
    1.4289   -1.6500    0.0000 C   0  0  0  0  0  0  0  0  0  0  0  0
    0.7145   -1.2375    0.0000 C   0  0  0  0  0  0  0  0  0  0  0  0
    0.0000   -1.6500    0.0000 O   0  0  0  0  0  0  0  0  0  0  0  0
   -0.7145   -1.2375    0.0000 C   0  0  0  0  0  0  0  0  0  0  0  0
  1  2  1  0  0  0  0
  2  3  1  0  0  0  0
  3  4  2  0  0  0  0
  3 39  1  0  0  0  0
  4  5  1  0  0  0  0
  5  6  1  0  0  0  0
  5 37  2  0  0  0  0
  6  7  1  0  0  0  0
  7  8  1  0  0  0  0
  8  9  1  0  0  0  0
  8 36  1  0  0  0  0
  9 10  1  0  0  0  0
 10 11  1  0  0  0  0
 11 12  1  0  0  0  0
 12 13  2  0  0  0  0
 12 14  1  0  0  0  0
 14 15  2  0  0  0  0
 14 19  1  0  0  0  0
 15 16  1  0  0  0  0
 16 17  2  0  0  0  0
 17 18  1  0  0  0  0
 18 19  2  0  0  0  0
 19 20  1  0  0  0  0
 20 21  1  0  0  0  0
 21 22  2  0  0  0  0
 21 23  1  0  0  0  0
 23 24  2  0  0  0  0
 23 35  1  0  0  0  0
 24 25  1  0  0  0  0
 25 26  2  0  0  0  0
 26 27  1  0  0  0  0
 26 34  1  0  0  0  0
 27 28  1  0  0  0  0
 28 29  2  0  0  0  0
 28 33  1  0  0  0  0
 29 30  1  0  0  0  0
 30 31  2  0  0  0  0
 31 32  1  0  0  0  0
 32 33  2  0  0  0  0
 34 35  2  0  0  0  0
 36 37  1  0  0  0  0
 37 38  1  0  0  0  0
 38 39  2  0  0  0  0
 39 40  1  0  0  0  0
 40 41  1  0  0  0  0
M  END
$$$$

 OpenBabel12191814062D

 41 45  0  0  0  0  0  0  0  0999 V2000
   -0.7145   -0.4125    0.0000 C   0  0  0  0  0  0  0  0  0  0  0  0
    0.0000    0.0000    0.0000 O   0  0  0  0  0  0  0  0  0  0  0  0
    0.7145   -0.4125    0.0000 C   0  0  0  0  0  0  0  0  0  0  0  0
    1.4289    0.0000    0.0000 C   0  0  0  0  0  0  0  0  0  0  0  0
    2.1434   -0.4125    0.0000 C   0  0  0  0  0  0  0  0  0  0  0  0
    2.8579    0.0000    0.0000 C   0  0  0  0  0  0  0  0  0  0  0  0
    3.5724   -0.4125    0.0000 C   0  0  0  0  0  0  0  0  0  0  0  0
    3.5724   -1.2375    0.0000 N   0  0  0  0  0  0  0  0  0  0  0  0
    4.2868   -1.6500    0.0000 C   0  0  0  0  0  0  0  0  0  0  0  0
    4.2868   -2.4750    0.0000 C   0  0  0  0  0  0  0  0  0  0  0  0
    5.0013   -2.8875    0.0000 N   0  0  0  0  0  0  0  0  0  0  0  0
    5.0013   -3.7125    0.0000 C   0  0  0  0  0  0  0  0  0  0  0  0
    4.2868   -4.1250    0.0000 O   0  0  0  0  0  0  0  0  0  0  0  0
    5.7158   -4.1250    0.0000 C   0  0  0  0  0  0  0  0  0  0  0  0
    6.4302   -3.7125    0.0000 C   0  0  0  0  0  0  0  0  0  0  0  0
    7.1447   -4.1250    0.0000 C   0  0  0  0  0  0  0  0  0  0  0  0
    7.1447   -4.9500    0.0000 C   0  0  0  0  0  0  0  0  0  0  0  0
    6.4302   -5.3625    0.0000 C   0  0  0  0  0  0  0  0  0  0  0  0
    5.7158   -4.9500    0.0000 C   0  0  0  0  0  0  0  0  0  0  0  0
    5.0013   -5.3625    0.0000 N   0  0  0  0  0  0  0  0  0  0  0  0
    5.0013   -6.1875    0.0000 C   0  0  0  0  0  0  0  0  0  0  0  0
    5.7158   -6.6000    0.0000 O   0  0  0  0  0  0  0  0  0  0  0  0
    4.2868   -6.6000    0.0000 C   0  0  0  0  0  0  0  0  0  0  0  0
    4.2868   -7.4250    0.0000 C   0  0  0  0  0  0  0  0  0  0  0  0
    3.5724   -7.8375    0.0000 C   0  0  0  0  0  0  0  0  0  0  0  0
    2.8579   -7.4250    0.0000 C   0  0  0  0  0  0  0  0  0  0  0  0
    2.1434   -7.8375    0.0000 O   0  0  0  0  0  0  0  0  0  0  0  0
    2.1434   -8.6625    0.0000 C   0  0  0  0  0  0  0  0  0  0  0  0
    2.8579   -9.0750    0.0000 C   0  0  0  0  0  0  0  0  0  0  0  0
    2.8579   -9.9000    0.0000 C   0  0  0  0  0  0  0  0  0  0  0  0
    2.1434  -10.3125    0.0000 C   0  0  0  0  0  0  0  0  0  0  0  0
    1.4289   -9.9000    0.0000 C   0  0  0  0  0  0  0  0  0  0  0  0
    1.4289   -9.0750    0.0000 C   0  0  0  0  0  0  0  0  0  0  0  0
    2.8579   -6.6000    0.0000 C   0  0  0  0  0  0  0  0  0  0  0  0
    3.5724   -6.1875    0.0000 C   0  0  0  0  0  0  0  0  0  0  0  0
    2.8579   -1.6500    0.0000 C   0  0  0  0  0  0  0  0  0  0  0  0
    2.1434   -1.2375    0.0000 C   0  0  0  0  0  0  0  0  0  0  0  0
    1.4289   -1.6500    0.0000 C   0  0  0  0  0  0  0  0  0  0  0  0
    0.7145   -1.2375    0.0000 C   0  0  0  0  0  0  0  0  0  0  0  0
    0.0000   -1.6500    0.0000 O   0  0  0  0  0  0  0  0  0  0  0  0
   -0.7145   -1.2375    0.0000 C   0  0  0  0  0  0  0  0  0  0  0  0
  1  2  1  0  0  0  0
  2  3  1  0  0  0  0
  3  4  2  0  0  0  0
  3 39  1  0  0  0  0
  4  5  1  0  0  0  0
  5  6  1  0  0  0  0
  5 37  2  0  0  0  0
  6  7  1  0  0  0  0
  7  8  1  0  0  0  0
  8  9  1  0  0  0  0
  8 36  1  0  0  0  0
  9 10  1  0  0  0  0
 10 11  1  0  0  0  0
 11 12  1  0  0  0  0
 12 13  2  0  0  0  0
 12 14  1  0  0  0  0
 14 15  2  0  0  0  0
 14 19  1  0  0  0  0
 15 16  1  0  0  0  0
 16 17  2  0  0  0  0
 17 18  1  0  0  0  0
 18 19  2  0  0  0  0
 19 20  1  0  0  0  0
 20 21  1  0  0  0  0
 21 22  2  0  0  0  0
 21 23  1  0  0  0  0
 23 24  2  0  0  0  0
 23 35  1  0  0  0  0
 24 25  1  0  0  0  0
 25 26  2  0  0  0  0
 26 27  1  0  0  0  0
 26 34  1  0  0  0  0
 27 28  1  0  0  0  0
 28 29  1  0  0  0  0
 28 33  1  0  0  0  0
 29 30  1  0  0  0  0
 30 31  1  0  0  0  0
 31 32  1  0  0  0  0
 32 33  1  0  0  0  0
 34 35  2  0  0  0  0
 36 37  1  0  0  0  0
 37 38  1  0  0  0  0
 38 39  2  0  0  0  0
 39 40  1  0  0  0  0
 40 41  1  0  0  0  0
M  END
$$$$

 OpenBabel12191814062D

 42 46  0  0  0  0  0  0  0  0999 V2000
   -0.7145   -0.4125    0.0000 C   0  0  0  0  0  0  0  0  0  0  0  0
    0.0000    0.0000    0.0000 O   0  0  0  0  0  0  0  0  0  0  0  0
    0.7145   -0.4125    0.0000 C   0  0  0  0  0  0  0  0  0  0  0  0
    1.4289    0.0000    0.0000 C   0  0  0  0  0  0  0  0  0  0  0  0
    2.1434   -0.4125    0.0000 C   0  0  0  0  0  0  0  0  0  0  0  0
    2.8579    0.0000    0.0000 C   0  0  0  0  0  0  0  0  0  0  0  0
    3.5724   -0.4125    0.0000 C   0  0  0  0  0  0  0  0  0  0  0  0
    3.5724   -1.2375    0.0000 N   0  0  0  0  0  0  0  0  0  0  0  0
    4.2868   -1.6500    0.0000 C   0  0  0  0  0  0  0  0  0  0  0  0
    4.2868   -2.4750    0.0000 C   0  0  0  0  0  0  0  0  0  0  0  0
    5.0013   -2.8875    0.0000 N   0  0  0  0  0  0  0  0  0  0  0  0
    5.0013   -3.7125    0.0000 C   0  0  0  0  0  0  0  0  0  0  0  0
    4.2868   -4.1250    0.0000 O   0  0  0  0  0  0  0  0  0  0  0  0
    5.7158   -4.1250    0.0000 C   0  0  0  0  0  0  0  0  0  0  0  0
    6.4302   -3.7125    0.0000 C   0  0  0  0  0  0  0  0  0  0  0  0
    7.1447   -4.1250    0.0000 C   0  0  0  0  0  0  0  0  0  0  0  0
    7.1447   -4.9500    0.0000 C   0  0  0  0  0  0  0  0  0  0  0  0
    6.4302   -5.3625    0.0000 C   0  0  0  0  0  0  0  0  0  0  0  0
    5.7158   -4.9500    0.0000 C   0  0  0  0  0  0  0  0  0  0  0  0
    5.0013   -5.3625    0.0000 N   0  0  0  0  0  0  0  0  0  0  0  0
    5.0013   -6.1875    0.0000 C   0  0  0  0  0  0  0  0  0  0  0  0
    5.7158   -6.6000    0.0000 O   0  0  0  0  0  0  0  0  0  0  0  0
    4.2868   -6.6000    0.0000 C   0  0  0  0  0  0  0  0  0  0  0  0
    4.2868   -7.4250    0.0000 C   0  0  0  0  0  0  0  0  0  0  0  0
    3.5724   -7.8375    0.0000 C   0  0  0  0  0  0  0  0  0  0  0  0
    2.8579   -7.4250    0.0000 C   0  0  0  0  0  0  0  0  0  0  0  0
    2.1434   -7.8375    0.0000 O   0  0  0  0  0  0  0  0  0  0  0  0
    2.1434   -8.6625    0.0000 C   0  0  0  0  0  0  0  0  0  0  0  0
    1.4289   -9.0750    0.0000 C   0  0  0  0  0  0  0  0  0  0  0  0
    1.4289   -9.9000    0.0000 C   0  0  0  0  0  0  0  0  0  0  0  0
    0.7145  -10.3125    0.0000 C   0  0  0  0  0  0  0  0  0  0  0  0
   -0.0000   -9.9000    0.0000 C   0  0  0  0  0  0  0  0  0  0  0  0
   -0.0000   -9.0750    0.0000 C   0  0  0  0  0  0  0  0  0  0  0  0
    0.7145   -8.6625    0.0000 C   0  0  0  0  0  0  0  0  0  0  0  0
    2.8579   -6.6000    0.0000 C   0  0  0  0  0  0  0  0  0  0  0  0
    3.5724   -6.1875    0.0000 C   0  0  0  0  0  0  0  0  0  0  0  0
    2.8579   -1.6500    0.0000 C   0  0  0  0  0  0  0  0  0  0  0  0
    2.1434   -1.2375    0.0000 C   0  0  0  0  0  0  0  0  0  0  0  0
    1.4289   -1.6500    0.0000 C   0  0  0  0  0  0  0  0  0  0  0  0
    0.7145   -1.2375    0.0000 C   0  0  0  0  0  0  0  0  0  0  0  0
    0.0000   -1.6500    0.0000 O   0  0  0  0  0  0  0  0  0  0  0  0
   -0.7145   -1.2375    0.0000 C   0  0  0  0  0  0  0  0  0  0  0  0
  1  2  1  0  0  0  0
  2  3  1  0  0  0  0
  3  4  2  0  0  0  0
  3 40  1  0  0  0  0
  4  5  1  0  0  0  0
  5  6  1  0  0  0  0
  5 38  2  0  0  0  0
  6  7  1  0  0  0  0
  7  8  1  0  0  0  0
  8  9  1  0  0  0  0
  8 37  1  0  0  0  0
  9 10  1  0  0  0  0
 10 11  1  0  0  0  0
 11 12  1  0  0  0  0
 12 13  2  0  0  0  0
 12 14  1  0  0  0  0
 14 15  2  0  0  0  0
 14 19  1  0  0  0  0
 15 16  1  0  0  0  0
 16 17  2  0  0  0  0
 17 18  1  0  0  0  0
 18 19  2  0  0  0  0
 19 20  1  0  0  0  0
 20 21  1  0  0  0  0
 21 22  2  0  0  0  0
 21 23  1  0  0  0  0
 23 24  2  0  0  0  0
 23 36  1  0  0  0  0
 24 25  1  0  0  0  0
 25 26  2  0  0  0  0
 26 27  1  0  0  0  0
 26 35  1  0  0  0  0
 27 28  1  0  0  0  0
 28 29  1  0  0  0  0
 29 30  2  0  0  0  0
 29 34  1  0  0  0  0
 30 31  1  0  0  0  0
 31 32  2  0  0  0  0
 32 33  1  0  0  0  0
 33 34  2  0  0  0  0
 35 36  2  0  0  0  0
 37 38  1  0  0  0  0
 38 39  1  0  0  0  0
 39 40  2  0  0  0  0
 40 41  1  0  0  0  0
 41 42  1  0  0  0  0
M  END
$$$$

 OpenBabel12191814062D

 38 42  0  0  0  0  0  0  0  0999 V2000
    4.2868   -6.6000    0.0000 C   0  0  0  0  0  0  0  0  0  0  0  0
    5.0013   -6.1875    0.0000 O   0  0  0  0  0  0  0  0  0  0  0  0
    5.7158   -6.6000    0.0000 C   0  0  0  0  0  0  0  0  0  0  0  0
    6.4302   -6.1875    0.0000 C   0  0  0  0  0  0  0  0  0  0  0  0
    7.1447   -6.6000    0.0000 C   0  0  0  0  0  0  0  0  0  0  0  0
    7.8592   -6.1875    0.0000 C   0  0  0  0  0  0  0  0  0  0  0  0
    8.5737   -6.6000    0.0000 C   0  0  0  0  0  0  0  0  0  0  0  0
    8.5737   -7.4250    0.0000 N   0  0  0  0  0  0  0  0  0  0  0  0
    9.2881   -7.8375    0.0000 C   0  0  0  0  0  0  0  0  0  0  0  0
    9.2881   -8.6625    0.0000 C   0  0  0  0  0  0  0  0  0  0  0  0
   10.0026   -9.0750    0.0000 N   0  0  0  0  0  0  0  0  0  0  0  0
   10.0026   -9.9000    0.0000 C   0  0  0  0  0  0  0  0  0  0  0  0
    9.2881  -10.3125    0.0000 O   0  0  0  0  0  0  0  0  0  0  0  0
   10.7171  -10.3125    0.0000 C   0  0  0  0  0  0  0  0  0  0  0  0
   11.4315   -9.9000    0.0000 C   0  0  0  0  0  0  0  0  0  0  0  0
   12.1460  -10.3125    0.0000 C   0  0  0  0  0  0  0  0  0  0  0  0
   12.1460  -11.1375    0.0000 C   0  0  0  0  0  0  0  0  0  0  0  0
   11.4315  -11.5500    0.0000 C   0  0  0  0  0  0  0  0  0  0  0  0
   10.7171  -11.1375    0.0000 C   0  0  0  0  0  0  0  0  0  0  0  0
   10.0026  -11.5500    0.0000 N   0  0  0  0  0  0  0  0  0  0  0  0
   10.0026  -12.3750    0.0000 C   0  0  0  0  0  0  0  0  0  0  0  0
    9.2881  -12.7875    0.0000 O   0  0  0  0  0  0  0  0  0  0  0  0
   10.7171  -12.7875    0.0000 C   0  0  0  0  0  0  0  0  0  0  0  0
   11.4315  -12.3750    0.0000 C   0  0  0  0  0  0  0  0  0  0  0  0
   12.1460  -12.7875    0.0000 C   0  0  0  0  0  0  0  0  0  0  0  0
   12.1460  -13.6125    0.0000 C   0  0  0  0  0  0  0  0  0  0  0  0
   12.8605  -14.0250    0.0000 C   0  0  0  0  0  0  0  0  0  0  0  0
   12.8605  -14.8500    0.0000 C   0  0  0  0  0  0  0  0  0  0  0  0
   12.1460  -15.2625    0.0000 C   0  0  0  0  0  0  0  0  0  0  0  0
   11.4315  -14.8500    0.0000 C   0  0  0  0  0  0  0  0  0  0  0  0
   11.4315  -14.0250    0.0000 C   0  0  0  0  0  0  0  0  0  0  0  0
   10.7171  -13.6125    0.0000 C   0  0  0  0  0  0  0  0  0  0  0  0
    7.8592   -7.8375    0.0000 C   0  0  0  0  0  0  0  0  0  0  0  0
    7.1447   -7.4250    0.0000 C   0  0  0  0  0  0  0  0  0  0  0  0
    6.4302   -7.8375    0.0000 C   0  0  0  0  0  0  0  0  0  0  0  0
    5.7158   -7.4250    0.0000 C   0  0  0  0  0  0  0  0  0  0  0  0
    5.0013   -7.8375    0.0000 O   0  0  0  0  0  0  0  0  0  0  0  0
    4.2868   -7.4250    0.0000 C   0  0  0  0  0  0  0  0  0  0  0  0
  1  2  1  0  0  0  0
  2  3  1  0  0  0  0
  3  4  2  0  0  0  0
  3 36  1  0  0  0  0
  4  5  1  0  0  0  0
  5  6  1  0  0  0  0
  5 34  2  0  0  0  0
  6  7  1  0  0  0  0
  7  8  1  0  0  0  0
  8  9  1  0  0  0  0
  8 33  1  0  0  0  0
  9 10  1  0  0  0  0
 10 11  1  0  0  0  0
 11 12  1  0  0  0  0
 12 13  2  0  0  0  0
 12 14  1  0  0  0  0
 14 15  2  0  0  0  0
 14 19  1  0  0  0  0
 15 16  1  0  0  0  0
 16 17  2  0  0  0  0
 17 18  1  0  0  0  0
 18 19  2  0  0  0  0
 19 20  1  0  0  0  0
 20 21  1  0  0  0  0
 21 22  2  0  0  0  0
 21 23  1  0  0  0  0
 23 24  2  0  0  0  0
 23 32  1  0  0  0  0
 24 25  1  0  0  0  0
 25 26  2  0  0  0  0
 26 27  1  0  0  0  0
 26 31  1  0  0  0  0
 27 28  2  0  0  0  0
 28 29  1  0  0  0  0
 29 30  2  0  0  0  0
 30 31  1  0  0  0  0
 31 32  2  0  0  0  0
 33 34  1  0  0  0  0
 34 35  1  0  0  0  0
 35 36  2  0  0  0  0
 36 37  1  0  0  0  0
 37 38  1  0  0  0  0
M  END
$$$$

 OpenBabel12191814062D

 38 42  0  0  0  0  0  0  0  0999 V2000
    4.2868   -6.6000    0.0000 C   0  0  0  0  0  0  0  0  0  0  0  0
    5.0013   -6.1875    0.0000 O   0  0  0  0  0  0  0  0  0  0  0  0
    5.7158   -6.6000    0.0000 C   0  0  0  0  0  0  0  0  0  0  0  0
    6.4302   -6.1875    0.0000 C   0  0  0  0  0  0  0  0  0  0  0  0
    7.1447   -6.6000    0.0000 C   0  0  0  0  0  0  0  0  0  0  0  0
    7.8592   -6.1875    0.0000 C   0  0  0  0  0  0  0  0  0  0  0  0
    8.5737   -6.6000    0.0000 C   0  0  0  0  0  0  0  0  0  0  0  0
    8.5737   -7.4250    0.0000 N   0  0  0  0  0  0  0  0  0  0  0  0
    9.2881   -7.8375    0.0000 C   0  0  0  0  0  0  0  0  0  0  0  0
    9.2881   -8.6625    0.0000 C   0  0  0  0  0  0  0  0  0  0  0  0
   10.0026   -9.0750    0.0000 N   0  0  0  0  0  0  0  0  0  0  0  0
   10.0026   -9.9000    0.0000 C   0  0  0  0  0  0  0  0  0  0  0  0
    9.2881  -10.3125    0.0000 O   0  0  0  0  0  0  0  0  0  0  0  0
   10.7171  -10.3125    0.0000 C   0  0  0  0  0  0  0  0  0  0  0  0
   11.4315   -9.9000    0.0000 C   0  0  0  0  0  0  0  0  0  0  0  0
   12.1460  -10.3125    0.0000 C   0  0  0  0  0  0  0  0  0  0  0  0
   12.1460  -11.1375    0.0000 C   0  0  0  0  0  0  0  0  0  0  0  0
   11.4315  -11.5500    0.0000 C   0  0  0  0  0  0  0  0  0  0  0  0
   10.7171  -11.1375    0.0000 C   0  0  0  0  0  0  0  0  0  0  0  0
   10.0026  -11.5500    0.0000 N   0  0  0  0  0  0  0  0  0  0  0  0
   10.0026  -12.3750    0.0000 C   0  0  0  0  0  0  0  0  0  0  0  0
    9.2881  -12.7875    0.0000 O   0  0  0  0  0  0  0  0  0  0  0  0
   10.7171  -12.7875    0.0000 C   0  0  0  0  0  0  0  0  0  0  0  0
   11.4315  -12.3750    0.0000 C   0  0  0  0  0  0  0  0  0  0  0  0
   12.1460  -12.7875    0.0000 C   0  0  0  0  0  0  0  0  0  0  0  0
   12.1460  -13.6125    0.0000 C   0  0  0  0  0  0  0  0  0  0  0  0
   12.8605  -14.0250    0.0000 C   0  0  0  0  0  0  0  0  0  0  0  0
   12.8605  -14.8500    0.0000 C   0  0  0  0  0  0  0  0  0  0  0  0
   12.1460  -15.2625    0.0000 C   0  0  0  0  0  0  0  0  0  0  0  0
   11.4315  -14.8500    0.0000 C   0  0  0  0  0  0  0  0  0  0  0  0
   11.4315  -14.0250    0.0000 C   0  0  0  0  0  0  0  0  0  0  0  0
   10.7171  -13.6125    0.0000 N   0  0  0  0  0  0  0  0  0  0  0  0
    7.8592   -7.8375    0.0000 C   0  0  0  0  0  0  0  0  0  0  0  0
    7.1447   -7.4250    0.0000 C   0  0  0  0  0  0  0  0  0  0  0  0
    6.4302   -7.8375    0.0000 C   0  0  0  0  0  0  0  0  0  0  0  0
    5.7158   -7.4250    0.0000 C   0  0  0  0  0  0  0  0  0  0  0  0
    5.0013   -7.8375    0.0000 O   0  0  0  0  0  0  0  0  0  0  0  0
    4.2868   -7.4250    0.0000 C   0  0  0  0  0  0  0  0  0  0  0  0
  1  2  1  0  0  0  0
  2  3  1  0  0  0  0
  3  4  2  0  0  0  0
  3 36  1  0  0  0  0
  4  5  1  0  0  0  0
  5  6  1  0  0  0  0
  5 34  2  0  0  0  0
  6  7  1  0  0  0  0
  7  8  1  0  0  0  0
  8  9  1  0  0  0  0
  8 33  1  0  0  0  0
  9 10  1  0  0  0  0
 10 11  1  0  0  0  0
 11 12  1  0  0  0  0
 12 13  2  0  0  0  0
 12 14  1  0  0  0  0
 14 15  2  0  0  0  0
 14 19  1  0  0  0  0
 15 16  1  0  0  0  0
 16 17  2  0  0  0  0
 17 18  1  0  0  0  0
 18 19  2  0  0  0  0
 19 20  1  0  0  0  0
 20 21  1  0  0  0  0
 21 22  2  0  0  0  0
 21 23  1  0  0  0  0
 23 24  2  0  0  0  0
 23 32  1  0  0  0  0
 24 25  1  0  0  0  0
 25 26  2  0  0  0  0
 26 27  1  0  0  0  0
 26 31  1  0  0  0  0
 27 28  2  0  0  0  0
 28 29  1  0  0  0  0
 29 30  2  0  0  0  0
 30 31  1  0  0  0  0
 31 32  2  0  0  0  0
 33 34  1  0  0  0  0
 34 35  1  0  0  0  0
 35 36  2  0  0  0  0
 36 37  1  0  0  0  0
 37 38  1  0  0  0  0
M  END
$$$$

 OpenBabel12191814062D

 24 27  0  0  0  0  0  0  0  0999 V2000
   -4.0337   -0.9711    0.0000 C   0  0  0  0  0  0  0  0  0  0  0  0
   -3.7637   -1.7507    0.0000 O   0  0  0  0  0  0  0  0  0  0  0  0
   -2.9535   -1.9066    0.0000 C   0  0  0  0  0  0  0  0  0  0  0  0
   -2.6835   -2.6861    0.0000 C   0  0  0  0  0  0  0  0  0  0  0  0
   -1.8734   -2.8421    0.0000 C   0  0  0  0  0  0  0  0  0  0  0  0
   -1.6033   -3.6216    0.0000 C   0  0  0  0  0  0  0  0  0  0  0  0
   -0.7932   -3.7775    0.0000 C   0  0  0  0  0  0  0  0  0  0  0  0
   -0.2531   -3.1539    0.0000 N   0  0  3  0  0  0  0  0  0  0  0  0
    0.5570   -3.3098    0.0000 C   0  0  0  0  0  0  0  0  0  0  0  0
    1.0971   -2.6861    0.0000 C   0  0  0  0  0  0  0  0  0  0  0  0
    0.8271   -1.9066    0.0000 C   0  0  0  0  0  0  0  0  0  0  0  0
    0.0169   -1.7507    0.0000 C   0  0  0  0  0  0  0  0  0  0  0  0
   -0.5231   -2.3743    0.0000 C   0  0  3  0  0  0  0  0  0  0  0  0
   -1.3333   -2.2184    0.0000 C   0  0  0  0  0  0  0  0  0  0  0  0
   -1.6033   -1.4389    0.0000 C   0  0  0  0  0  0  0  0  0  0  0  0
   -2.4135   -1.2829    0.0000 C   0  0  0  0  0  0  0  0  0  0  0  0
   -2.6835   -0.5034    0.0000 O   0  0  0  0  0  0  0  0  0  0  0  0
    1.3672   -1.2829    0.0000 C   0  0  0  0  0  0  0  0  0  0  0  0
    2.1773   -1.4389    0.0000 C   0  0  0  0  0  0  0  0  0  0  0  0
    2.4473   -2.2184    0.0000 C   0  0  0  0  0  0  0  0  0  0  0  0
    3.2575   -2.3743    0.0000 O   0  0  0  0  0  0  0  0  0  0  0  0
    3.7976   -1.7507    0.0000 C   0  0  0  0  0  0  0  0  0  0  0  0
    1.9073   -2.8421    0.0000 C   0  0  0  0  0  0  0  0  0  0  0  0
    2.1773   -3.6216    0.0000 O   0  0  0  0  0  0  0  0  0  0  0  0
  1  2  1  0  0  0  0
  2  3  1  0  0  0  0
  3  4  2  0  0  0  0
  3 16  1  0  0  0  0
  4  5  1  0  0  0  0
  5  6  1  0  0  0  0
  5 14  2  0  0  0  0
  6  7  1  0  0  0  0
  7  8  1  0  0  0  0
  8  9  1  0  0  0  0
  8 13  1  0  0  0  0
  9 10  1  0  0  0  0
 10 11  2  0  0  0  0
 10 23  1  0  0  0  0
 11 12  1  0  0  0  0
 11 18  1  0  0  0  0
 12 13  1  0  0  0  0
 13 14  1  0  0  0  0
 14 15  1  0  0  0  0
 15 16  2  0  0  0  0
 16 17  1  0  0  0  0
 18 19  2  0  0  0  0
 19 20  1  0  0  0  0
 20 21  1  0  0  0  0
 20 23  2  0  0  0  0
 21 22  1  0  0  0  0
 23 24  1  0  0  0  0
M  END
$$$$

 OpenBabel12191814062D

 23 25  0  0  0  0  0  0  0  0999 V2000
   -0.7145   -0.4125    0.0000 C   0  0  0  0  0  0  0  0  0  0  0  0
    0.0000    0.0000    0.0000 O   0  0  0  0  0  0  0  0  0  0  0  0
    0.7145   -0.4125    0.0000 C   0  0  0  0  0  0  0  0  0  0  0  0
    1.4289    0.0000    0.0000 C   0  0  0  0  0  0  0  0  0  0  0  0
    2.1434   -0.4125    0.0000 C   0  0  0  0  0  0  0  0  0  0  0  0
    2.8579    0.0000    0.0000 C   0  0  0  0  0  0  0  0  0  0  0  0
    3.5724   -0.4125    0.0000 C   0  0  0  0  0  0  0  0  0  0  0  0
    3.5724   -1.2375    0.0000 N   0  0  0  0  0  0  0  0  0  0  0  0
    2.8579   -1.6500    0.0000 C   0  0  3  0  0  0  0  0  0  0  0  0
    2.8579   -2.4750    0.0000 C   0  0  0  0  0  0  0  0  0  0  0  0
    3.5724   -2.8875    0.0000 C   0  0  0  0  0  0  0  0  0  0  0  0
    3.5724   -3.7125    0.0000 C   0  0  0  0  0  0  0  0  0  0  0  0
    4.2868   -4.1250    0.0000 C   0  0  0  0  0  0  0  0  0  0  0  0
    4.2868   -4.9500    0.0000 C   0  0  0  0  0  0  0  0  0  0  0  0
    3.5724   -5.3625    0.0000 C   0  0  0  0  0  0  0  0  0  0  0  0
    3.5724   -6.1875    0.0000 C   0  0  0  0  0  0  0  0  0  0  0  0
    2.8579   -4.9500    0.0000 C   0  0  0  0  0  0  0  0  0  0  0  0
    2.8579   -4.1250    0.0000 C   0  0  0  0  0  0  0  0  0  0  0  0
    2.1434   -1.2375    0.0000 C   0  0  0  0  0  0  0  0  0  0  0  0
    1.4289   -1.6500    0.0000 C   0  0  0  0  0  0  0  0  0  0  0  0
    0.7145   -1.2375    0.0000 C   0  0  0  0  0  0  0  0  0  0  0  0
    0.0000   -1.6500    0.0000 O   0  0  0  0  0  0  0  0  0  0  0  0
   -0.7145   -1.2375    0.0000 C   0  0  0  0  0  0  0  0  0  0  0  0
  1  2  1  0  0  0  0
  2  3  1  0  0  0  0
  3  4  2  0  0  0  0
  3 21  1  0  0  0  0
  4  5  1  0  0  0  0
  5  6  1  0  0  0  0
  5 19  2  0  0  0  0
  6  7  1  0  0  0  0
  7  8  1  0  0  0  0
  8  9  1  0  0  0  0
  9 10  1  0  0  0  0
  9 19  1  0  0  0  0
 10 11  1  0  0  0  0
 11 12  1  0  0  0  0
 12 13  2  0  0  0  0
 12 18  1  0  0  0  0
 13 14  1  0  0  0  0
 14 15  2  0  0  0  0
 15 16  1  0  0  0  0
 15 17  1  0  0  0  0
 17 18  2  0  0  0  0
 19 20  1  0  0  0  0
 20 21  2  0  0  0  0
 21 22  1  0  0  0  0
 22 23  1  0  0  0  0
M  END
$$$$

 OpenBabel12191814062D

 31 35  0  0  0  0  0  0  0  0999 V2000
    0.6662   -3.7441    0.0000 C   0  0  0  0  0  0  0  0  0  0  0  0
    1.2046   -4.3692    0.0000 O   0  0  0  0  0  0  0  0  0  0  0  0
    2.0151   -4.2154    0.0000 C   0  0  3  0  0  0  0  0  0  0  0  0
    2.5535   -4.8405    0.0000 C   0  0  0  0  0  0  0  0  0  0  0  0
    3.3641   -4.6868    0.0000 C   0  0  3  0  0  0  0  0  0  0  0  0
    3.9025   -5.3119    0.0000 C   0  0  0  0  0  0  0  0  0  0  0  0
    4.7131   -5.1582    0.0000 N   0  0  3  0  0  0  0  0  0  0  0  0
    5.2515   -5.7833    0.0000 C   0  0  0  0  0  0  0  0  0  0  0  0
    6.0620   -5.6295    0.0000 C   0  0  0  0  0  0  0  0  0  0  0  0
    6.3342   -4.8507    0.0000 C   0  0  0  0  0  0  0  0  0  0  0  0
    5.7957   -4.2256    0.0000 C   0  0  0  0  0  0  0  0  0  0  0  0
    6.2239   -3.5204    0.0000 N   0  0  0  0  0  0  0  0  0  0  0  0
    7.0269   -3.7096    0.0000 C   0  0  0  0  0  0  0  0  0  0  0  0
    7.7048   -3.2395    0.0000 C   0  0  0  0  0  0  0  0  0  0  0  0
    8.4509   -3.5916    0.0000 C   0  0  0  0  0  0  0  0  0  0  0  0
    9.1289   -3.1215    0.0000 O   0  0  0  0  0  0  0  0  0  0  0  0
    9.0607   -2.2993    0.0000 C   0  0  0  0  0  0  0  0  0  0  0  0
    8.5191   -4.4138    0.0000 C   0  0  0  0  0  0  0  0  0  0  0  0
    7.8411   -4.8839    0.0000 C   0  0  0  0  0  0  0  0  0  0  0  0
    7.0950   -4.5318    0.0000 C   0  0  0  0  0  0  0  0  0  0  0  0
    4.9852   -4.3793    0.0000 C   0  0  3  0  0  0  0  0  0  0  0  0
    4.4468   -3.7542    0.0000 C   0  0  0  0  0  0  0  0  0  0  0  0
    3.6362   -3.9080    0.0000 C   0  0  3  0  0  0  0  0  0  0  0  0
    3.0978   -3.2829    0.0000 C   0  0  3  0  0  0  0  0  0  0  0  0
    2.2873   -3.4366    0.0000 C   0  0  3  0  0  0  0  0  0  0  0  0
    1.7489   -2.8115    0.0000 O   0  0  0  0  0  0  0  0  0  0  0  0
    0.9383   -2.9652    0.0000 C   0  0  0  0  0  0  0  0  0  0  0  0
    3.3700   -2.5041    0.0000 C   0  0  0  0  0  0  0  0  0  0  0  0
    4.1805   -2.3503    0.0000 O   0  0  0  0  0  0  0  0  0  0  0  0
    2.8316   -1.8790    0.0000 O   0  0  0  0  0  0  0  0  0  0  0  0
    3.1037   -1.1001    0.0000 C   0  0  0  0  0  0  0  0  0  0  0  0
  1  2  1  0  0  0  0
  2  3  1  0  0  0  0
  3  4  1  0  0  0  0
  3 25  1  0  0  0  0
  4  5  1  0  0  0  0
  5  6  1  0  0  0  0
  5 23  1  0  0  0  0
  6  7  1  0  0  0  0
  7  8  1  0  0  0  0
  7 21  1  0  0  0  0
  8  9  1  0  0  0  0
  9 10  1  0  0  0  0
 10 11  2  0  0  0  0
 10 20  1  0  0  0  0
 11 12  1  0  0  0  0
 11 21  1  0  0  0  0
 12 13  1  0  0  0  0
 13 14  2  0  0  0  0
 13 20  1  0  0  0  0
 14 15  1  0  0  0  0
 15 16  1  0  0  0  0
 15 18  2  0  0  0  0
 16 17  1  0  0  0  0
 18 19  1  0  0  0  0
 19 20  2  0  0  0  0
 21 22  1  0  0  0  0
 22 23  1  0  0  0  0
 23 24  1  0  0  0  0
 24 25  1  0  0  0  0
 24 28  1  0  0  0  0
 25 26  1  0  0  0  0
 26 27  1  0  0  0  0
 28 29  2  0  0  0  0
 28 30  1  0  0  0  0
 30 31  1  0  0  0  0
M  END
$$$$

 OpenBabel12191814062D

 22 24  0  0  0  0  0  0  0  0999 V2000
   -0.7145   -0.4125    0.0000 C   0  0  0  0  0  0  0  0  0  0  0  0
    0.0000    0.0000    0.0000 O   0  0  0  0  0  0  0  0  0  0  0  0
    0.7145   -0.4125    0.0000 C   0  0  0  0  0  0  0  0  0  0  0  0
    1.4289    0.0000    0.0000 C   0  0  0  0  0  0  0  0  0  0  0  0
    2.1434   -0.4125    0.0000 C   0  0  0  0  0  0  0  0  0  0  0  0
    2.8579    0.0000    0.0000 N   0  0  0  0  0  0  0  0  0  0  0  0
    3.5724   -0.4125    0.0000 C   0  0  0  0  0  0  0  0  0  0  0  0
    3.5724   -1.2375    0.0000 N   0  0  0  0  0  0  0  0  0  0  0  0
    2.8579   -1.6500    0.0000 C   0  0  0  0  0  0  0  0  0  0  0  0
    2.8579   -2.4750    0.0000 N   0  0  0  0  0  0  0  0  0  0  0  0
    2.1434   -2.8875    0.0000 C   0  0  0  0  0  0  0  0  0  0  0  0
    2.1434   -3.7125    0.0000 C   0  0  0  0  0  0  0  0  0  0  0  0
    1.4289   -4.1250    0.0000 C   0  0  0  0  0  0  0  0  0  0  0  0
    0.7145   -3.7125    0.0000 C   0  0  0  0  0  0  0  0  0  0  0  0
    0.7145   -2.8875    0.0000 C   0  0  0  0  0  0  0  0  0  0  0  0
    0.0000   -2.4750    0.0000 Br  0  0  0  0  0  0  0  0  0  0  0  0
    1.4289   -2.4750    0.0000 C   0  0  0  0  0  0  0  0  0  0  0  0
    2.1434   -1.2375    0.0000 C   0  0  0  0  0  0  0  0  0  0  0  0
    1.4289   -1.6500    0.0000 C   0  0  0  0  0  0  0  0  0  0  0  0
    0.7145   -1.2375    0.0000 C   0  0  0  0  0  0  0  0  0  0  0  0
    0.0000   -1.6500    0.0000 O   0  0  0  0  0  0  0  0  0  0  0  0
   -0.7145   -1.2375    0.0000 C   0  0  0  0  0  0  0  0  0  0  0  0
  1  2  1  0  0  0  0
  2  3  1  0  0  0  0
  3  4  2  0  0  0  0
  3 20  1  0  0  0  0
  4  5  1  0  0  0  0
  5  6  2  0  0  0  0
  5 18  1  0  0  0  0
  6  7  1  0  0  0  0
  7  8  2  0  0  0  0
  8  9  1  0  0  0  0
  9 10  1  0  0  0  0
  9 18  2  0  0  0  0
 10 11  1  0  0  0  0
 11 12  2  0  0  0  0
 11 17  1  0  0  0  0
 12 13  1  0  0  0  0
 13 14  2  0  0  0  0
 14 15  1  0  0  0  0
 15 16  1  0  0  0  0
 15 17  2  0  0  0  0
 18 19  1  0  0  0  0
 19 20  2  0  0  0  0
 20 21  1  0  0  0  0
 21 22  1  0  0  0  0
M  END
$$$$

 OpenBabel12191814062D

 22 24  0  0  0  0  0  0  0  0999 V2000
   -0.7145   -0.4125    0.0000 C   0  0  0  0  0  0  0  0  0  0  0  0
    0.0000    0.0000    0.0000 O   0  0  0  0  0  0  0  0  0  0  0  0
    0.7145   -0.4125    0.0000 C   0  0  0  0  0  0  0  0  0  0  0  0
    1.4289    0.0000    0.0000 C   0  0  0  0  0  0  0  0  0  0  0  0
    2.1434   -0.4125    0.0000 C   0  0  0  0  0  0  0  0  0  0  0  0
    2.8579    0.0000    0.0000 O   0  0  0  0  0  0  0  0  0  0  0  0
    3.5724   -0.4125    0.0000 C   0  0  0  0  0  0  0  0  0  0  0  0
    3.5724   -1.2375    0.0000 C   0  0  0  0  0  0  0  0  0  0  0  0
    2.8579   -1.6500    0.0000 C   0  0  0  0  0  0  0  0  0  0  0  0
    2.8579   -2.4750    0.0000 O   0  0  0  0  0  0  0  0  0  0  0  0
    2.1434   -1.2375    0.0000 C   0  0  0  0  0  0  0  0  0  0  0  0
    1.4289   -1.6500    0.0000 C   0  0  0  0  0  0  0  0  0  0  0  0
    1.4289   -2.4750    0.0000 O   0  0  0  0  0  0  0  0  0  0  0  0
    0.7145   -1.2375    0.0000 C   0  0  0  0  0  0  0  0  0  0  0  0
    0.0000   -1.6500    0.0000 O   0  0  0  0  0  0  0  0  0  0  0  0
   -0.7145   -1.2375    0.0000 C   0  0  0  0  0  0  0  0  0  0  0  0
    4.2868   -0.0000    0.0000 C   0  0  0  0  0  0  0  0  0  0  0  0
    4.2868    0.8250    0.0000 C   0  0  0  0  0  0  0  0  0  0  0  0
    5.0013    1.2375    0.0000 C   0  0  0  0  0  0  0  0  0  0  0  0
    5.7158    0.8250    0.0000 C   0  0  0  0  0  0  0  0  0  0  0  0
    5.7158   -0.0000    0.0000 C   0  0  0  0  0  0  0  0  0  0  0  0
    5.0013   -0.4125    0.0000 C   0  0  0  0  0  0  0  0  0  0  0  0
  1  2  1  0  0  0  0
  2  3  1  0  0  0  0
  3  4  2  0  0  0  0
  3 14  1  0  0  0  0
  4  5  1  0  0  0  0
  5  6  1  0  0  0  0
  5 11  2  0  0  0  0
  6  7  1  0  0  0  0
  7  8  2  0  0  0  0
  7 17  1  0  0  0  0
  8  9  1  0  0  0  0
  9 10  2  0  0  0  0
  9 11  1  0  0  0  0
 11 12  1  0  0  0  0
 12 13  1  0  0  0  0
 12 14  2  0  0  0  0
 14 15  1  0  0  0  0
 15 16  1  0  0  0  0
 17 18  2  0  0  0  0
 17 22  1  0  0  0  0
 18 19  1  0  0  0  0
 19 20  2  0  0  0  0
 20 21  1  0  0  0  0
 21 22  2  0  0  0  0
M  END
$$$$

 OpenBabel12191814062D

 25 27  0  0  0  0  0  0  0  0999 V2000
    0.0000    0.8250    0.0000 C   0  0  0  0  0  0  0  0  0  0  0  0
    0.0000    0.0000    0.0000 O   0  0  0  0  0  0  0  0  0  0  0  0
    0.7145   -0.4125    0.0000 C   0  0  0  0  0  0  0  0  0  0  0  0
    1.4289    0.0000    0.0000 C   0  0  0  0  0  0  0  0  0  0  0  0
    2.1434   -0.4125    0.0000 C   0  0  0  0  0  0  0  0  0  0  0  0
    2.8579    0.0000    0.0000 O   0  0  0  0  0  0  0  0  0  0  0  0
    3.5724   -0.4125    0.0000 C   0  0  0  0  0  0  0  0  0  0  0  0
    3.5724   -1.2375    0.0000 C   0  0  0  0  0  0  0  0  0  0  0  0
    2.8579   -1.6500    0.0000 C   0  0  0  0  0  0  0  0  0  0  0  0
    2.8579   -2.4750    0.0000 O   0  0  0  0  0  0  0  0  0  0  0  0
    2.1434   -1.2375    0.0000 C   0  0  0  0  0  0  0  0  0  0  0  0
    1.4289   -1.6500    0.0000 C   0  0  0  0  0  0  0  0  0  0  0  0
    1.4289   -2.4750    0.0000 O   0  0  0  0  0  0  0  0  0  0  0  0
    0.7145   -2.8875    0.0000 C   0  0  0  0  0  0  0  0  0  0  0  0
    0.7145   -1.2375    0.0000 C   0  0  0  0  0  0  0  0  0  0  0  0
    0.0000   -1.6500    0.0000 O   0  0  0  0  0  0  0  0  0  0  0  0
   -0.7145   -1.2375    0.0000 C   0  0  0  0  0  0  0  0  0  0  0  0
   -0.7145   -0.4125    0.0000 C   0  0  0  0  0  0  0  0  0  0  0  0
   -1.4289   -1.6500    0.0000 O   0  0  0  0  0  0  0  0  0  0  0  0
    4.2868   -0.0000    0.0000 C   0  0  0  0  0  0  0  0  0  0  0  0
    4.2868    0.8250    0.0000 C   0  0  0  0  0  0  0  0  0  0  0  0
    5.0013    1.2375    0.0000 C   0  0  0  0  0  0  0  0  0  0  0  0
    5.7158    0.8250    0.0000 C   0  0  0  0  0  0  0  0  0  0  0  0
    5.7158   -0.0000    0.0000 C   0  0  0  0  0  0  0  0  0  0  0  0
    5.0013   -0.4125    0.0000 C   0  0  0  0  0  0  0  0  0  0  0  0
  1  2  1  0  0  0  0
  2  3  1  0  0  0  0
  3  4  2  0  0  0  0
  3 15  1  0  0  0  0
  4  5  1  0  0  0  0
  5  6  1  0  0  0  0
  5 11  2  0  0  0  0
  6  7  1  0  0  0  0
  7  8  2  0  0  0  0
  7 20  1  0  0  0  0
  8  9  1  0  0  0  0
  9 10  2  0  0  0  0
  9 11  1  0  0  0  0
 11 12  1  0  0  0  0
 12 13  1  0  0  0  0
 12 15  2  0  0  0  0
 13 14  1  0  0  0  0
 15 16  1  0  0  0  0
 16 17  1  0  0  0  0
 17 18  1  0  0  0  0
 17 19  2  0  0  0  0
 20 21  2  0  0  0  0
 20 25  1  0  0  0  0
 21 22  1  0  0  0  0
 22 23  2  0  0  0  0
 23 24  1  0  0  0  0
 24 25  2  0  0  0  0
M  END
$$$$

 OpenBabel12191814062D

 23 25  0  0  0  0  0  0  0  0999 V2000
   -0.7145   -0.4125    0.0000 C   0  0  0  0  0  0  0  0  0  0  0  0
    0.0000    0.0000    0.0000 O   0  0  0  0  0  0  0  0  0  0  0  0
    0.7145   -0.4125    0.0000 C   0  0  0  0  0  0  0  0  0  0  0  0
    1.4289    0.0000    0.0000 C   0  0  0  0  0  0  0  0  0  0  0  0
    2.1434   -0.4125    0.0000 C   0  0  0  0  0  0  0  0  0  0  0  0
    2.8579    0.0000    0.0000 O   0  0  0  0  0  0  0  0  0  0  0  0
    3.5724   -0.4125    0.0000 C   0  0  0  0  0  0  0  0  0  0  0  0
    3.5724   -1.2375    0.0000 C   0  0  0  0  0  0  0  0  0  0  0  0
    2.8579   -1.6500    0.0000 C   0  0  0  0  0  0  0  0  0  0  0  0
    2.8579   -2.4750    0.0000 O   0  0  0  0  0  0  0  0  0  0  0  0
    2.1434   -1.2375    0.0000 C   0  0  0  0  0  0  0  0  0  0  0  0
    1.4289   -1.6500    0.0000 C   0  0  0  0  0  0  0  0  0  0  0  0
    1.4289   -2.4750    0.0000 O   0  0  0  0  0  0  0  0  0  0  0  0
    0.7145   -2.8875    0.0000 C   0  0  0  0  0  0  0  0  0  0  0  0
    0.7145   -1.2375    0.0000 C   0  0  0  0  0  0  0  0  0  0  0  0
    0.0000   -1.6500    0.0000 O   0  0  0  0  0  0  0  0  0  0  0  0
   -0.7145   -1.2375    0.0000 C   0  0  0  0  0  0  0  0  0  0  0  0
    4.2868   -0.0000    0.0000 C   0  0  0  0  0  0  0  0  0  0  0  0
    4.2868    0.8250    0.0000 C   0  0  0  0  0  0  0  0  0  0  0  0
    5.0013    1.2375    0.0000 C   0  0  0  0  0  0  0  0  0  0  0  0
    5.7158    0.8250    0.0000 C   0  0  0  0  0  0  0  0  0  0  0  0
    5.7158   -0.0000    0.0000 C   0  0  0  0  0  0  0  0  0  0  0  0
    5.0013   -0.4125    0.0000 C   0  0  0  0  0  0  0  0  0  0  0  0
  1  2  1  0  0  0  0
  2  3  1  0  0  0  0
  3  4  2  0  0  0  0
  3 15  1  0  0  0  0
  4  5  1  0  0  0  0
  5  6  1  0  0  0  0
  5 11  2  0  0  0  0
  6  7  1  0  0  0  0
  7  8  2  0  0  0  0
  7 18  1  0  0  0  0
  8  9  1  0  0  0  0
  9 10  2  0  0  0  0
  9 11  1  0  0  0  0
 11 12  1  0  0  0  0
 12 13  1  0  0  0  0
 12 15  2  0  0  0  0
 13 14  1  0  0  0  0
 15 16  1  0  0  0  0
 16 17  1  0  0  0  0
 18 19  2  0  0  0  0
 18 23  1  0  0  0  0
 19 20  1  0  0  0  0
 20 21  2  0  0  0  0
 21 22  1  0  0  0  0
 22 23  2  0  0  0  0
M  END
$$$$

 OpenBabel12191814062D

 44 47  0  0  0  0  0  0  0  0999 V2000
    3.5724    6.1875    0.0000 C   0  0  0  0  0  0  0  0  0  0  0  0
    3.5724    7.0125    0.0000 O   0  0  0  0  0  0  0  0  0  0  0  0
    4.2868    7.4250    0.0000 C   0  0  0  0  0  0  0  0  0  0  0  0
    4.2868    8.2500    0.0000 C   0  0  0  0  0  0  0  0  0  0  0  0
    5.0013    8.6625    0.0000 C   0  0  0  0  0  0  0  0  0  0  0  0
    5.7158    8.2500    0.0000 C   0  0  0  0  0  0  0  0  0  0  0  0
    6.4302    8.6625    0.0000 C   0  0  0  0  0  0  0  0  0  0  0  0
    7.1447    8.2500    0.0000 C   0  0  0  0  0  0  0  0  0  0  0  0
    7.8592    8.6625    0.0000 C   0  0  0  0  0  0  0  0  0  0  0  0
    7.8592    9.4875    0.0000 O   0  0  0  0  0  0  0  0  0  0  0  0
    8.5737    8.2500    0.0000 O   0  0  0  0  0  0  0  0  0  0  0  0
    9.2881    8.6625    0.0000 C   0  0  0  0  0  0  0  0  0  0  0  0
   10.0026    8.2500    0.0000 C   0  0  0  0  0  0  0  0  0  0  0  0
   10.7171    8.6625    0.0000 C   0  0  0  0  0  0  0  0  0  0  0  0
   11.4315    8.2500    0.0000 C   0  0  0  0  0  0  0  0  0  0  0  0
   12.1460    8.6625    0.0000 C   0  0  0  0  0  0  0  0  0  0  0  0
   12.8605    8.2500    0.0000 N   0  0  0  0  0  0  0  0  0  0  0  0
   12.8605    7.4250    0.0000 C   0  0  0  0  0  0  0  0  0  0  0  0
   13.5749    8.6625    0.0000 C   0  0  0  0  0  0  0  0  0  0  0  0
   14.2894    8.2500    0.0000 C   0  0  0  0  0  0  0  0  0  0  0  0
   15.0039    8.6625    0.0000 C   0  0  0  0  0  0  0  0  0  0  0  0
   15.7184    8.2500    0.0000 C   0  0  0  0  0  0  0  0  0  0  0  0
   16.4328    8.6625    0.0000 C   0  0  0  0  0  0  0  0  0  0  0  0
   17.1473    8.2500    0.0000 O   0  0  0  0  0  0  0  0  0  0  0  0
   17.8618    8.6625    0.0000 C   0  0  0  0  0  0  0  0  0  0  0  0
   17.8618    9.4875    0.0000 O   0  0  0  0  0  0  0  0  0  0  0  0
   18.5762    8.2500    0.0000 C   0  0  0  0  0  0  0  0  0  0  0  0
   19.2907    8.6625    0.0000 C   0  0  0  0  0  0  0  0  0  0  0  0
   19.2907    9.4875    0.0000 C   0  0  0  0  0  0  0  0  0  0  0  0
   20.0052    9.9000    0.0000 C   0  0  0  0  0  0  0  0  0  0  0  0
   20.7197    9.4875    0.0000 C   0  0  0  0  0  0  0  0  0  0  0  0
   20.7197    8.6625    0.0000 C   0  0  0  0  0  0  0  0  0  0  0  0
   20.0052    8.2500    0.0000 C   0  0  0  0  0  0  0  0  0  0  0  0
   20.0052    7.4250    0.0000 C   0  0  0  0  0  0  0  0  0  0  0  0
   19.2907    7.0125    0.0000 C   0  0  0  0  0  0  0  0  0  0  0  0
   19.2907    6.1875    0.0000 C   0  0  0  0  0  0  0  0  0  0  0  0
   18.5762    5.7750    0.0000 C   0  0  0  0  0  0  0  0  0  0  0  0
   17.8618    6.1875    0.0000 C   0  0  0  0  0  0  0  0  0  0  0  0
   17.8618    7.0125    0.0000 C   0  0  0  0  0  0  0  0  0  0  0  0
   18.5762    7.4250    0.0000 C   0  0  0  0  0  0  0  0  0  0  0  0
    5.7158    7.4250    0.0000 C   0  0  0  0  0  0  0  0  0  0  0  0
    5.0013    7.0125    0.0000 C   0  0  0  0  0  0  0  0  0  0  0  0
    5.0013    6.1875    0.0000 O   0  0  0  0  0  0  0  0  0  0  0  0
    4.2868    5.7750    0.0000 C   0  0  0  0  0  0  0  0  0  0  0  0
  1  2  1  0  0  0  0
  2  3  1  0  0  0  0
  3  4  2  0  0  0  0
  3 42  1  0  0  0  0
  4  5  1  0  0  0  0
  5  6  2  0  0  0  0
  6  7  1  0  0  0  0
  6 41  1  0  0  0  0
  7  8  2  0  0  0  0
  8  9  1  0  0  0  0
  9 10  2  0  0  0  0
  9 11  1  0  0  0  0
 11 12  1  0  0  0  0
 12 13  1  0  0  0  0
 13 14  1  0  0  0  0
 14 15  1  0  0  0  0
 15 16  1  0  0  0  0
 16 17  1  0  0  0  0
 17 18  1  0  0  0  0
 17 19  1  0  0  0  0
 19 20  1  0  0  0  0
 20 21  1  0  0  0  0
 21 22  1  0  0  0  0
 22 23  1  0  0  0  0
 23 24  1  0  0  0  0
 24 25  1  0  0  0  0
 25 26  2  0  0  0  0
 25 27  1  0  0  0  0
 27 28  2  0  0  0  0
 27 40  1  0  0  0  0
 28 29  1  0  0  0  0
 28 33  1  0  0  0  0
 29 30  2  0  0  0  0
 30 31  1  0  0  0  0
 31 32  2  0  0  0  0
 32 33  1  0  0  0  0
 33 34  2  0  0  0  0
 34 35  1  0  0  0  0
 35 36  2  0  0  0  0
 35 40  1  0  0  0  0
 36 37  1  0  0  0  0
 37 38  2  0  0  0  0
 38 39  1  0  0  0  0
 39 40  2  0  0  0  0
 41 42  2  0  0  0  0
 42 43  1  0  0  0  0
 43 44  1  0  0  0  0
M  END
$$$$

 OpenBabel12191814062D

 39 42  0  0  0  0  0  0  0  0999 V2000
    2.8579   -2.4750    0.0000 C   0  0  0  0  0  0  0  0  0  0  0  0
    3.5724   -2.8875    0.0000 O   0  0  0  0  0  0  0  0  0  0  0  0
    3.5724   -3.7125    0.0000 C   0  0  0  0  0  0  0  0  0  0  0  0
    4.2868   -4.1250    0.0000 C   0  0  0  0  0  0  0  0  0  0  0  0
    4.2868   -4.9500    0.0000 C   0  0  0  0  0  0  0  0  0  0  0  0
    3.5724   -5.3625    0.0000 C   0  0  0  0  0  0  0  0  0  0  0  0
    3.5724   -6.1875    0.0000 C   0  0  0  0  0  0  0  0  0  0  0  0
    2.8579   -6.6000    0.0000 O   0  0  0  0  0  0  0  0  0  0  0  0
    4.2868   -6.6000    0.0000 C   0  0  0  0  0  0  0  0  0  0  0  0
    4.2868   -7.4250    0.0000 C   0  0  0  0  0  0  0  0  0  0  0  0
    5.0013   -7.8375    0.0000 C   0  0  0  0  0  0  0  0  0  0  0  0
    5.7158   -7.4250    0.0000 C   0  0  0  0  0  0  0  0  0  0  0  0
    6.4302   -7.8375    0.0000 C   0  0  0  0  0  0  0  0  0  0  0  0
    6.4302   -8.6625    0.0000 C   0  0  0  0  0  0  0  0  0  0  0  0
    5.7158   -9.0750    0.0000 C   0  0  0  0  0  0  0  0  0  0  0  0
    5.0013   -8.6625    0.0000 C   0  0  0  0  0  0  0  0  0  0  0  0
    7.1447   -9.0750    0.0000 N   0  0  0  0  0  0  0  0  0  0  0  0
    7.1447   -9.9000    0.0000 C   0  0  0  0  0  0  0  0  0  0  0  0
    7.8592   -8.6625    0.0000 C   0  0  0  0  0  0  0  0  0  0  0  0
    2.8579   -4.9500    0.0000 C   0  0  0  0  0  0  0  0  0  0  0  0
    2.1434   -5.3625    0.0000 O   0  0  0  0  0  0  0  0  0  0  0  0
    1.4289   -4.9500    0.0000 C   0  0  0  0  0  0  0  0  0  0  0  0
    1.4289   -4.1250    0.0000 C   0  0  3  0  0  0  0  0  0  0  0  0
    2.1434   -3.7125    0.0000 O   0  0  0  0  0  0  0  0  0  0  0  0
    0.7145   -3.7125    0.0000 C   0  0  0  0  0  0  0  0  0  0  0  0
    0.7145   -2.8875    0.0000 N   0  0  0  0  0  0  0  0  0  0  0  0
    0.0000   -2.4750    0.0000 C   0  0  0  0  0  0  0  0  0  0  0  0
    0.0000   -1.6500    0.0000 C   0  0  0  0  0  0  0  0  0  0  0  0
    0.7145   -1.2375    0.0000 N   0  0  0  0  0  0  0  0  0  0  0  0
    1.4289   -1.6500    0.0000 C   0  0  0  0  0  0  0  0  0  0  0  0
    1.4289   -2.4750    0.0000 C   0  0  0  0  0  0  0  0  0  0  0  0
    0.7145   -0.4125    0.0000 C   0  0  0  0  0  0  0  0  0  0  0  0
    0.0000    0.0000    0.0000 C   0  0  0  0  0  0  0  0  0  0  0  0
    0.0000    0.8250    0.0000 C   0  0  0  0  0  0  0  0  0  0  0  0
    0.7145    1.2375    0.0000 C   0  0  0  0  0  0  0  0  0  0  0  0
    1.4289    0.8250    0.0000 C   0  0  0  0  0  0  0  0  0  0  0  0
    1.4289    0.0000    0.0000 C   0  0  0  0  0  0  0  0  0  0  0  0
    2.1434   -0.4125    0.0000 C   0  0  0  0  0  0  0  0  0  0  0  0
    2.8579   -4.1250    0.0000 C   0  0  0  0  0  0  0  0  0  0  0  0
  1  2  1  0  0  0  0
  2  3  1  0  0  0  0
  3  4  2  0  0  0  0
  3 39  1  0  0  0  0
  4  5  1  0  0  0  0
  5  6  2  0  0  0  0
  6  7  1  0  0  0  0
  6 20  1  0  0  0  0
  7  8  2  0  0  0  0
  7  9  1  0  0  0  0
  9 10  1  0  0  0  0
 10 11  1  0  0  0  0
 11 12  2  0  0  0  0
 11 16  1  0  0  0  0
 12 13  1  0  0  0  0
 13 14  2  0  0  0  0
 14 15  1  0  0  0  0
 14 17  1  0  0  0  0
 15 16  2  0  0  0  0
 17 18  1  0  0  0  0
 17 19  1  0  0  0  0
 20 21  1  0  0  0  0
 20 39  2  0  0  0  0
 21 22  1  0  0  0  0
 22 23  1  0  0  0  0
 23 24  1  0  0  0  0
 23 25  1  0  0  0  0
 25 26  1  0  0  0  0
 26 27  1  0  0  0  0
 26 31  1  0  0  0  0
 27 28  1  0  0  0  0
 28 29  1  0  0  0  0
 29 30  1  0  0  0  0
 29 32  1  0  0  0  0
 30 31  1  0  0  0  0
 32 33  2  0  0  0  0
 32 37  1  0  0  0  0
 33 34  1  0  0  0  0
 34 35  2  0  0  0  0
 35 36  1  0  0  0  0
 36 37  2  0  0  0  0
 37 38  1  0  0  0  0
M  END
$$$$

 OpenBabel12191814062D

 36 39  0  0  0  0  0  0  0  0999 V2000
    2.8579   -2.4750    0.0000 C   0  0  0  0  0  0  0  0  0  0  0  0
    3.5724   -2.8875    0.0000 O   0  0  0  0  0  0  0  0  0  0  0  0
    3.5724   -3.7125    0.0000 C   0  0  0  0  0  0  0  0  0  0  0  0
    4.2868   -4.1250    0.0000 C   0  0  0  0  0  0  0  0  0  0  0  0
    4.2868   -4.9500    0.0000 C   0  0  0  0  0  0  0  0  0  0  0  0
    3.5724   -5.3625    0.0000 C   0  0  0  0  0  0  0  0  0  0  0  0
    3.5724   -6.1875    0.0000 C   0  0  0  0  0  0  0  0  0  0  0  0
    2.8579   -6.6000    0.0000 O   0  0  0  0  0  0  0  0  0  0  0  0
    4.2868   -6.6000    0.0000 C   0  0  0  0  0  0  0  0  0  0  0  0
    4.2868   -7.4250    0.0000 C   0  0  0  0  0  0  0  0  0  0  0  0
    5.0013   -7.8375    0.0000 C   0  0  0  0  0  0  0  0  0  0  0  0
    5.7158   -7.4250    0.0000 C   0  0  0  0  0  0  0  0  0  0  0  0
    6.4302   -7.8375    0.0000 C   0  0  0  0  0  0  0  0  0  0  0  0
    6.4302   -8.6625    0.0000 C   0  0  0  0  0  0  0  0  0  0  0  0
    5.7158   -9.0750    0.0000 C   0  0  0  0  0  0  0  0  0  0  0  0
    5.0013   -8.6625    0.0000 C   0  0  0  0  0  0  0  0  0  0  0  0
    2.8579   -4.9500    0.0000 C   0  0  0  0  0  0  0  0  0  0  0  0
    2.1434   -5.3625    0.0000 O   0  0  0  0  0  0  0  0  0  0  0  0
    1.4289   -4.9500    0.0000 C   0  0  0  0  0  0  0  0  0  0  0  0
    1.4289   -4.1250    0.0000 C   0  0  0  0  0  0  0  0  0  0  0  0
    2.1434   -3.7125    0.0000 O   0  0  0  0  0  0  0  0  0  0  0  0
    0.7145   -3.7125    0.0000 C   0  0  0  0  0  0  0  0  0  0  0  0
    0.7145   -2.8875    0.0000 N   0  0  0  0  0  0  0  0  0  0  0  0
    0.0000   -2.4750    0.0000 C   0  0  0  0  0  0  0  0  0  0  0  0
    0.0000   -1.6500    0.0000 C   0  0  0  0  0  0  0  0  0  0  0  0
    0.7145   -1.2375    0.0000 N   0  0  0  0  0  0  0  0  0  0  0  0
    1.4289   -1.6500    0.0000 C   0  0  0  0  0  0  0  0  0  0  0  0
    1.4289   -2.4750    0.0000 C   0  0  0  0  0  0  0  0  0  0  0  0
    0.7145   -0.4125    0.0000 C   0  0  0  0  0  0  0  0  0  0  0  0
    0.0000    0.0000    0.0000 C   0  0  0  0  0  0  0  0  0  0  0  0
    0.0000    0.8250    0.0000 C   0  0  0  0  0  0  0  0  0  0  0  0
    0.7145    1.2375    0.0000 C   0  0  0  0  0  0  0  0  0  0  0  0
    1.4289    0.8250    0.0000 C   0  0  0  0  0  0  0  0  0  0  0  0
    1.4289    0.0000    0.0000 C   0  0  0  0  0  0  0  0  0  0  0  0
    2.1434   -0.4125    0.0000 C   0  0  0  0  0  0  0  0  0  0  0  0
    2.8579   -4.1250    0.0000 C   0  0  0  0  0  0  0  0  0  0  0  0
  1  2  1  0  0  0  0
  2  3  1  0  0  0  0
  3  4  2  0  0  0  0
  3 36  1  0  0  0  0
  4  5  1  0  0  0  0
  5  6  2  0  0  0  0
  6  7  1  0  0  0  0
  6 17  1  0  0  0  0
  7  8  2  0  0  0  0
  7  9  1  0  0  0  0
  9 10  1  0  0  0  0
 10 11  1  0  0  0  0
 11 12  2  0  0  0  0
 11 16  1  0  0  0  0
 12 13  1  0  0  0  0
 13 14  2  0  0  0  0
 14 15  1  0  0  0  0
 15 16  2  0  0  0  0
 17 18  1  0  0  0  0
 17 36  2  0  0  0  0
 18 19  1  0  0  0  0
 19 20  1  0  0  0  0
 20 21  2  0  0  0  0
 20 22  1  0  0  0  0
 22 23  1  0  0  0  0
 23 24  1  0  0  0  0
 23 28  1  0  0  0  0
 24 25  1  0  0  0  0
 25 26  1  0  0  0  0
 26 27  1  0  0  0  0
 26 29  1  0  0  0  0
 27 28  1  0  0  0  0
 29 30  2  0  0  0  0
 29 34  1  0  0  0  0
 30 31  1  0  0  0  0
 31 32  2  0  0  0  0
 32 33  1  0  0  0  0
 33 34  2  0  0  0  0
 34 35  1  0  0  0  0
M  END
$$$$

 OpenBabel12191814062D

 31 32  0  0  0  0  0  0  0  0999 V2000
   -5.0013   -1.2375    0.0000 C   0  0  0  0  0  0  0  0  0  0  0  0
   -4.2868   -0.8250    0.0000 O   0  0  0  0  0  0  0  0  0  0  0  0
   -3.5724   -1.2375    0.0000 C   0  0  0  0  0  0  0  0  0  0  0  0
   -2.8579   -0.8250    0.0000 C   0  0  0  0  0  0  0  0  0  0  0  0
   -2.1434   -1.2375    0.0000 C   0  0  0  0  0  0  0  0  0  0  0  0
   -2.1434   -2.0625    0.0000 C   0  0  0  0  0  0  0  0  0  0  0  0
   -2.8579   -2.4750    0.0000 C   0  0  0  0  0  0  0  0  0  0  0  0
   -2.8579   -3.3000    0.0000 O   0  0  0  0  0  0  0  0  0  0  0  0
   -3.5724   -3.7125    0.0000 C   0  0  0  0  0  0  0  0  0  0  0  0
   -3.5724   -2.0625    0.0000 C   0  0  0  0  0  0  0  0  0  0  0  0
   -4.2868   -2.4750    0.0000 O   0  0  0  0  0  0  0  0  0  0  0  0
   -5.0013   -2.0625    0.0000 C   0  0  0  0  0  0  0  0  0  0  0  0
   -1.4289   -2.4750    0.0000 C   0  0  3  0  0  0  0  0  0  0  0  0
   -0.7145   -2.8875    0.0000 C   0  0  0  0  0  0  0  0  0  0  0  0
    0.0000   -2.4750    0.0000 C   0  0  0  0  0  0  0  0  0  0  0  0
    0.7145   -2.8875    0.0000 C   0  0  0  0  0  0  0  0  0  0  0  0
    1.4289   -2.4750    0.0000 N   0  0  0  0  0  0  0  0  0  0  0  0
    1.4289   -1.6500    0.0000 C   0  0  0  0  0  0  0  0  0  0  0  0
    2.1434   -2.8875    0.0000 C   0  0  0  0  0  0  0  0  0  0  0  0
    2.8579   -2.4750    0.0000 C   0  0  0  0  0  0  0  0  0  0  0  0
    3.5724   -2.8875    0.0000 C   0  0  0  0  0  0  0  0  0  0  0  0
    4.2868   -2.4750    0.0000 C   0  0  0  0  0  0  0  0  0  0  0  0
    5.0013   -2.8875    0.0000 C   0  0  0  0  0  0  0  0  0  0  0  0
    5.0013   -3.7125    0.0000 C   0  0  0  0  0  0  0  0  0  0  0  0
    4.2868   -4.1250    0.0000 C   0  0  0  0  0  0  0  0  0  0  0  0
    3.5724   -3.7125    0.0000 C   0  0  0  0  0  0  0  0  0  0  0  0
   -1.8414   -3.1895    0.0000 C   0  0  0  0  0  0  0  0  0  0  0  0
   -2.2539   -3.9039    0.0000 N   0  0  0  0  0  0  0  0  0  0  0  0
   -1.0164   -1.7605    0.0000 C   0  0  0  0  0  0  0  0  0  0  0  0
   -0.1914   -1.7605    0.0000 C   0  0  0  0  0  0  0  0  0  0  0  0
   -1.4289   -1.0461    0.0000 C   0  0  0  0  0  0  0  0  0  0  0  0
  1  2  1  0  0  0  0
  2  3  1  0  0  0  0
  3  4  2  0  0  0  0
  3 10  1  0  0  0  0
  4  5  1  0  0  0  0
  5  6  2  0  0  0  0
  6  7  1  0  0  0  0
  6 13  1  0  0  0  0
  7  8  1  0  0  0  0
  7 10  2  0  0  0  0
  8  9  1  0  0  0  0
 10 11  1  0  0  0  0
 11 12  1  0  0  0  0
 13 14  1  0  0  0  0
 13 27  1  0  0  0  0
 13 29  1  0  0  0  0
 14 15  1  0  0  0  0
 15 16  1  0  0  0  0
 16 17  1  0  0  0  0
 17 18  1  0  0  0  0
 17 19  1  0  0  0  0
 19 20  1  0  0  0  0
 20 21  1  0  0  0  0
 21 22  2  0  0  0  0
 21 26  1  0  0  0  0
 22 23  1  0  0  0  0
 23 24  2  0  0  0  0
 24 25  1  0  0  0  0
 25 26  2  0  0  0  0
 27 28  3  0  0  0  0
 29 30  1  0  0  0  0
 29 31  1  0  0  0  0
M  END
$$$$

 OpenBabel12191814062D

 23 25  0  0  0  0  0  0  0  0999 V2000
   -2.1434   -3.7125    0.0000 C   0  0  0  0  0  0  0  0  0  0  0  0
   -2.1434   -2.8875    0.0000 O   0  0  0  0  0  0  0  0  0  0  0  0
   -1.4289   -2.4750    0.0000 C   0  0  0  0  0  0  0  0  0  0  0  0
   -1.4289   -1.6500    0.0000 C   0  0  0  0  0  0  0  0  0  0  0  0
   -0.7145   -1.2375    0.0000 C   0  0  0  0  0  0  0  0  0  0  0  0
    0.0000   -1.6500    0.0000 C   0  0  0  0  0  0  0  0  0  0  0  0
    0.7145   -1.2375    0.0000 C   0  0  0  0  0  0  0  0  0  0  0  0
    0.7145   -0.4125    0.0000 C   0  0  0  0  0  0  0  0  0  0  0  0
    1.4289    0.0000    0.0000 C   0  0  0  0  0  0  0  0  0  0  0  0
    1.4289    0.8250    0.0000 O   0  0  0  0  0  0  0  0  0  0  0  0
    2.1434   -0.4125    0.0000 C   0  0  0  0  0  0  0  0  0  0  0  0
    2.8579    0.0000    0.0000 C   0  0  0  0  0  0  0  0  0  0  0  0
    3.5724   -0.4125    0.0000 C   0  0  0  0  0  0  0  0  0  0  0  0
    3.5724   -1.2375    0.0000 C   0  0  0  0  0  0  0  0  0  0  0  0
    2.8579   -1.6500    0.0000 C   0  0  0  0  0  0  0  0  0  0  0  0
    2.1434   -1.2375    0.0000 C   0  0  0  0  0  0  0  0  0  0  0  0
    1.4289   -1.6500    0.0000 O   0  0  0  0  0  0  0  0  0  0  0  0
    0.0000   -2.4750    0.0000 C   0  0  0  0  0  0  0  0  0  0  0  0
    0.7145   -2.8875    0.0000 O   0  0  0  0  0  0  0  0  0  0  0  0
    0.7145   -3.7125    0.0000 C   0  0  0  0  0  0  0  0  0  0  0  0
   -0.7145   -2.8875    0.0000 C   0  0  0  0  0  0  0  0  0  0  0  0
   -0.7145   -3.7125    0.0000 O   0  0  0  0  0  0  0  0  0  0  0  0
   -1.4289   -4.1250    0.0000 C   0  0  0  0  0  0  0  0  0  0  0  0
  1  2  1  0  0  0  0
  2  3  1  0  0  0  0
  3  4  2  0  0  0  0
  3 21  1  0  0  0  0
  4  5  1  0  0  0  0
  5  6  2  0  0  0  0
  6  7  1  0  0  0  0
  6 18  1  0  0  0  0
  7  8  2  0  0  0  0
  7 17  1  0  0  0  0
  8  9  1  0  0  0  0
  9 10  2  0  0  0  0
  9 11  1  0  0  0  0
 11 12  2  0  0  0  0
 11 16  1  0  0  0  0
 12 13  1  0  0  0  0
 13 14  2  0  0  0  0
 14 15  1  0  0  0  0
 15 16  2  0  0  0  0
 16 17  1  0  0  0  0
 18 19  1  0  0  0  0
 18 21  2  0  0  0  0
 19 20  1  0  0  0  0
 21 22  1  0  0  0  0
 22 23  1  0  0  0  0
M  END
$$$$

 OpenBabel12191814062D

 32 35  0  0  0  0  0  0  0  0999 V2000
   -1.6638   -3.3733    0.0000 C   0  0  0  0  0  0  0  0  0  0  0  0
   -0.9493   -2.9608    0.0000 O   0  0  0  0  0  0  0  0  0  0  0  0
   -0.2348   -3.3733    0.0000 C   0  0  0  0  0  0  0  0  0  0  0  0
    0.4796   -2.9608    0.0000 C   0  0  0  0  0  0  0  0  0  0  0  0
    1.1941   -3.3733    0.0000 C   0  0  0  0  0  0  0  0  0  0  0  0
    1.1941   -4.1983    0.0000 C   0  0  0  0  0  0  0  0  0  0  0  0
    1.9086   -4.6108    0.0000 C   0  0  0  0  0  0  0  0  0  0  0  0
    2.6230   -4.1983    0.0000 C   0  0  3  0  0  0  0  0  0  0  0  0
    2.6230   -3.3733    0.0000 C   0  0  0  0  0  0  0  0  0  0  0  0
    3.3375   -4.6108    0.0000 N   0  0  0  0  0  0  0  0  0  0  0  0
    4.0520   -4.1983    0.0000 C   0  0  0  0  0  0  0  0  0  0  0  0
    4.7665   -4.6108    0.0000 C   0  0  0  0  0  0  0  0  0  0  0  0
    5.4809   -4.1983    0.0000 C   0  0  0  0  0  0  0  0  0  0  0  0
    6.1954   -4.6108    0.0000 C   0  0  0  0  0  0  0  0  0  0  0  0
    6.8770   -4.1460    0.0000 C   0  0  0  0  0  0  0  0  0  0  0  0
    6.6935   -3.3417    0.0000 C   0  0  0  0  0  0  0  0  0  0  0  0
    7.2982   -2.7806    0.0000 C   0  0  0  0  0  0  0  0  0  0  0  0
    8.0866   -3.0237    0.0000 C   0  0  0  0  0  0  0  0  0  0  0  0
    8.2702   -3.8280    0.0000 C   0  0  0  0  0  0  0  0  0  0  0  0
    7.6654   -4.3892    0.0000 C   0  0  0  0  0  0  0  0  0  0  0  0
    7.9668   -5.1572    0.0000 C   0  0  0  0  0  0  0  0  0  0  0  0
    7.5543   -5.8716    0.0000 C   0  0  0  0  0  0  0  0  0  0  0  0
    6.7385   -5.9946    0.0000 C   0  0  0  0  0  0  0  0  0  0  0  0
    6.5549   -6.7989    0.0000 C   0  0  0  0  0  0  0  0  0  0  0  0
    5.7666   -7.0421    0.0000 C   0  0  0  0  0  0  0  0  0  0  0  0
    5.1618   -6.4809    0.0000 C   0  0  0  0  0  0  0  0  0  0  0  0
    5.3454   -5.6766    0.0000 C   0  0  0  0  0  0  0  0  0  0  0  0
    6.1337   -5.4334    0.0000 C   0  0  0  0  0  0  0  0  0  0  0  0
    0.4796   -4.6108    0.0000 C   0  0  0  0  0  0  0  0  0  0  0  0
   -0.2348   -4.1983    0.0000 C   0  0  0  0  0  0  0  0  0  0  0  0
   -0.9493   -4.6108    0.0000 O   0  0  0  0  0  0  0  0  0  0  0  0
   -1.6638   -4.1983    0.0000 C   0  0  0  0  0  0  0  0  0  0  0  0
  1  2  1  0  0  0  0
  2  3  1  0  0  0  0
  3  4  2  0  0  0  0
  3 30  1  0  0  0  0
  4  5  1  0  0  0  0
  5  6  2  0  0  0  0
  6  7  1  0  0  0  0
  6 29  1  0  0  0  0
  7  8  1  0  0  0  0
  8  9  1  0  0  0  0
  8 10  1  0  0  0  0
 10 11  1  0  0  0  0
 11 12  1  0  0  0  0
 12 13  1  0  0  0  0
 13 14  2  0  0  0  0
 14 15  1  0  0  0  0
 14 28  1  0  0  0  0
 15 16  2  0  0  0  0
 15 20  1  0  0  0  0
 16 17  1  0  0  0  0
 17 18  2  0  0  0  0
 18 19  1  0  0  0  0
 19 20  2  0  0  0  0
 20 21  1  0  0  0  0
 21 22  1  0  0  0  0
 22 23  1  0  0  0  0
 23 24  2  0  0  0  0
 23 28  1  0  0  0  0
 24 25  1  0  0  0  0
 25 26  2  0  0  0  0
 26 27  1  0  0  0  0
 27 28  2  0  0  0  0
 29 30  2  0  0  0  0
 30 31  1  0  0  0  0
 31 32  1  0  0  0  0
M  END
$$$$

 OpenBabel12191814062D

 33 36  0  0  0  0  0  0  0  0999 V2000
   -3.6791    6.0027    0.0000 C   0  0  0  0  0  0  0  0  0  0  0  0
   -3.6791    6.8277    0.0000 O   0  0  0  0  0  0  0  0  0  0  0  0
   -2.9646    7.2402    0.0000 C   0  0  0  0  0  0  0  0  0  0  0  0
   -2.9646    8.0652    0.0000 C   0  0  0  0  0  0  0  0  0  0  0  0
   -2.2501    8.4777    0.0000 C   0  0  0  0  0  0  0  0  0  0  0  0
   -1.5356    8.0652    0.0000 C   0  0  0  0  0  0  0  0  0  0  0  0
   -1.5356    7.2402    0.0000 C   0  0  0  0  0  0  0  0  0  0  0  0
   -2.2501    6.8277    0.0000 C   0  0  0  0  0  0  0  0  0  0  0  0
   -0.8212    8.4777    0.0000 C   0  0  0  0  0  0  0  0  0  0  0  0
   -0.8212    9.3027    0.0000 C   0  0  0  0  0  0  0  0  0  0  0  0
   -0.1067    9.7152    0.0000 C   0  0  0  0  0  0  0  0  0  0  0  0
   -0.1067   10.5402    0.0000 C   0  0  0  0  0  0  0  0  0  0  0  0
    0.6078   10.9527    0.0000 C   0  0  0  0  0  0  0  0  0  0  0  0
    1.3222   10.5402    0.0000 C   0  0  0  0  0  0  0  0  0  0  0  0
    1.3222    9.7152    0.0000 C   0  0  0  0  0  0  0  0  0  0  0  0
    0.6078    9.3027    0.0000 C   0  0  0  0  0  0  0  0  0  0  0  0
   -1.5356    9.7152    0.0000 N   0  3  0  0  0  0  0  0  0  0  0  0
   -1.5356   10.5402    0.0000 O   0  5  0  0  0  0  0  0  0  0  0  0
   -2.2501    9.3027    0.0000 O   0  0  0  0  0  0  0  0  0  0  0  0
   -0.1067    8.0652    0.0000 C   0  0  0  0  0  0  0  0  0  0  0  0
    0.6078    8.4777    0.0000 C   0  0  0  0  0  0  0  0  0  0  0  0
    1.3222    8.0652    0.0000 C   0  0  0  0  0  0  0  0  0  0  0  0
    1.3222    7.2402    0.0000 C   0  0  0  0  0  0  0  0  0  0  0  0
    2.0367    6.8277    0.0000 O   0  0  0  0  0  0  0  0  0  0  0  0
    2.0367    6.0027    0.0000 C   0  0  0  0  0  0  0  0  0  0  0  0
    2.7512    5.5902    0.0000 C   0  0  0  0  0  0  0  0  0  0  0  0
    2.7512    4.7652    0.0000 N   0  0  0  0  0  0  0  0  0  0  0  0
    3.4186    4.2803    0.0000 C   0  0  0  0  0  0  0  0  0  0  0  0
    3.1637    3.4956    0.0000 C   0  0  0  0  0  0  0  0  0  0  0  0
    2.3387    3.4956    0.0000 C   0  0  0  0  0  0  0  0  0  0  0  0
    2.0837    4.2803    0.0000 C   0  0  0  0  0  0  0  0  0  0  0  0
    0.6078    6.8277    0.0000 C   0  0  0  0  0  0  0  0  0  0  0  0
   -0.1067    7.2402    0.0000 C   0  0  0  0  0  0  0  0  0  0  0  0
  1  2  1  0  0  0  0
  2  3  1  0  0  0  0
  3  4  2  0  0  0  0
  3  8  1  0  0  0  0
  4  5  1  0  0  0  0
  5  6  2  0  0  0  0
  6  7  1  0  0  0  0
  6  9  1  0  0  0  0
  7  8  2  0  0  0  0
  9 10  2  0  0  0  0
  9 20  1  0  0  0  0
 10 11  1  0  0  0  0
 10 17  1  0  0  0  0
 11 12  2  0  0  0  0
 11 16  1  0  0  0  0
 12 13  1  0  0  0  0
 13 14  2  0  0  0  0
 14 15  1  0  0  0  0
 15 16  2  0  0  0  0
 17 18  1  0  0  0  0
 17 19  2  0  0  0  0
 20 21  2  0  0  0  0
 20 33  1  0  0  0  0
 21 22  1  0  0  0  0
 22 23  2  0  0  0  0
 23 24  1  0  0  0  0
 23 32  1  0  0  0  0
 24 25  1  0  0  0  0
 25 26  1  0  0  0  0
 26 27  1  0  0  0  0
 27 28  1  0  0  0  0
 27 31  1  0  0  0  0
 28 29  1  0  0  0  0
 29 30  1  0  0  0  0
 30 31  1  0  0  0  0
 32 33  2  0  0  0  0
M  CHG  2  17   1  18  -1
M  END
$$$$

 OpenBabel12191814062D

 28 30  0  0  0  0  0  0  0  0999 V2000
   -2.1434   -3.7125    0.0000 C   0  0  0  0  0  0  0  0  0  0  0  0
   -2.1434   -2.8875    0.0000 O   0  0  0  0  0  0  0  0  0  0  0  0
   -1.4289   -2.4750    0.0000 C   0  0  0  0  0  0  0  0  0  0  0  0
   -1.4289   -1.6500    0.0000 C   0  0  0  0  0  0  0  0  0  0  0  0
   -0.7145   -1.2375    0.0000 C   0  0  0  0  0  0  0  0  0  0  0  0
    0.0000   -1.6500    0.0000 C   0  0  0  0  0  0  0  0  0  0  0  0
    0.0000   -2.4750    0.0000 C   0  0  0  0  0  0  0  0  0  0  0  0
   -0.7145   -2.8875    0.0000 C   0  0  0  0  0  0  0  0  0  0  0  0
    0.7145   -1.2375    0.0000 C   0  0  0  0  0  0  0  0  0  0  0  0
    1.4289   -1.6500    0.0000 C   0  0  0  0  0  0  0  0  0  0  0  0
    2.1434   -1.2375    0.0000 C   0  0  0  0  0  0  0  0  0  0  0  0
    2.8579   -1.6500    0.0000 C   0  0  0  0  0  0  0  0  0  0  0  0
    2.8579   -2.4750    0.0000 N   0  0  0  0  0  0  0  0  0  0  0  0
    3.5724   -2.8875    0.0000 C   0  0  0  0  0  0  0  0  0  0  0  0
    4.2868   -2.4750    0.0000 C   0  0  0  0  0  0  0  0  0  0  0  0
    5.0013   -2.8875    0.0000 O   0  0  0  0  0  0  0  0  0  0  0  0
    5.7158   -2.4750    0.0000 C   0  0  0  0  0  0  0  0  0  0  0  0
    6.4302   -2.8875    0.0000 C   0  0  0  0  0  0  0  0  0  0  0  0
    7.1447   -2.4750    0.0000 N   0  0  0  0  0  0  0  0  0  0  0  0
    6.4302   -3.7125    0.0000 O   0  0  0  0  0  0  0  0  0  0  0  0
    2.1434   -2.8875    0.0000 C   0  0  0  0  0  0  0  0  0  0  0  0
    1.4289   -2.4750    0.0000 C   0  0  0  0  0  0  0  0  0  0  0  0
    0.7145   -0.4125    0.0000 C   0  0  0  0  0  0  0  0  0  0  0  0
   -0.0000   -0.0000    0.0000 C   0  0  0  0  0  0  0  0  0  0  0  0
   -0.0000    0.8250    0.0000 C   0  0  0  0  0  0  0  0  0  0  0  0
    0.7145    1.2375    0.0000 C   0  0  0  0  0  0  0  0  0  0  0  0
    1.4289    0.8250    0.0000 C   0  0  0  0  0  0  0  0  0  0  0  0
    1.4289   -0.0000    0.0000 C   0  0  0  0  0  0  0  0  0  0  0  0
  1  2  1  0  0  0  0
  2  3  1  0  0  0  0
  3  4  2  0  0  0  0
  3  8  1  0  0  0  0
  4  5  1  0  0  0  0
  5  6  2  0  0  0  0
  6  7  1  0  0  0  0
  6  9  1  0  0  0  0
  7  8  2  0  0  0  0
  9 10  2  0  0  0  0
  9 23  1  0  0  0  0
 10 11  1  0  0  0  0
 10 22  1  0  0  0  0
 11 12  1  0  0  0  0
 12 13  1  0  0  0  0
 13 14  1  0  0  0  0
 13 21  1  0  0  0  0
 14 15  1  0  0  0  0
 15 16  1  0  0  0  0
 16 17  1  0  0  0  0
 17 18  1  0  0  0  0
 18 19  1  0  0  0  0
 18 20  2  0  0  0  0
 21 22  1  0  0  0  0
 23 24  2  0  0  0  0
 23 28  1  0  0  0  0
 24 25  1  0  0  0  0
 25 26  2  0  0  0  0
 26 27  1  0  0  0  0
 27 28  2  0  0  0  0
M  END
$$$$

 OpenBabel12191814062D

 45 47  0  0  0  0  0  0  0  0999 V2000
   -4.2868   -0.8250    0.0000 C   0  0  0  0  0  0  0  0  0  0  0  0
   -3.5724   -0.4125    0.0000 O   0  0  0  0  0  0  0  0  0  0  0  0
   -2.8579   -0.8250    0.0000 C   0  0  0  0  0  0  0  0  0  0  0  0
   -2.1434   -0.4125    0.0000 C   0  0  0  0  0  0  0  0  0  0  0  0
   -1.4289   -0.8250    0.0000 C   0  0  0  0  0  0  0  0  0  0  0  0
   -1.4289   -1.6500    0.0000 C   0  0  0  0  0  0  0  0  0  0  0  0
   -2.1434   -2.0625    0.0000 C   0  0  0  0  0  0  0  0  0  0  0  0
   -2.8579   -1.6500    0.0000 C   0  0  0  0  0  0  0  0  0  0  0  0
   -0.7145   -2.0625    0.0000 C   0  0  0  0  0  0  0  0  0  0  0  0
    0.0000   -1.6500    0.0000 C   0  0  0  0  0  0  0  0  0  0  0  0
    0.0000   -0.8250    0.0000 O   0  0  0  0  0  0  0  0  0  0  0  0
    0.7145   -2.0625    0.0000 O   0  0  0  0  0  0  0  0  0  0  0  0
    1.4289   -1.6500    0.0000 C   0  0  0  0  0  0  0  0  0  0  0  0
    2.1434   -2.0625    0.0000 C   0  0  0  0  0  0  0  0  0  0  0  0
    2.8579   -1.6500    0.0000 C   0  0  0  0  0  0  0  0  0  0  0  0
    3.5724   -2.0625    0.0000 N   0  0  0  0  0  0  0  0  0  0  0  0
    3.5724   -2.8875    0.0000 C   0  0  0  0  0  0  0  0  0  0  0  0
    4.2868   -1.6500    0.0000 C   0  0  0  0  0  0  0  0  0  0  0  0
    5.0013   -2.0625    0.0000 C   0  0  0  0  0  0  0  0  0  0  0  0
    5.7158   -1.6500    0.0000 C   0  0  0  0  0  0  0  0  0  0  0  0
    6.4302   -2.0625    0.0000 O   0  0  0  0  0  0  0  0  0  0  0  0
    7.1447   -1.6500    0.0000 C   0  0  0  0  0  0  0  0  0  0  0  0
    7.1447   -0.8250    0.0000 O   0  0  0  0  0  0  0  0  0  0  0  0
    7.8592   -2.0625    0.0000 C   0  0  0  0  0  0  0  0  0  0  0  0
    8.5737   -1.6500    0.0000 C   0  0  0  0  0  0  0  0  0  0  0  0
    9.2881   -2.0625    0.0000 C   0  0  0  0  0  0  0  0  0  0  0  0
   10.0026   -1.6500    0.0000 C   0  0  0  0  0  0  0  0  0  0  0  0
   10.7171   -2.0625    0.0000 C   0  0  0  0  0  0  0  0  0  0  0  0
   11.4315   -1.6500    0.0000 O   0  0  0  0  0  0  0  0  0  0  0  0
   12.1460   -2.0625    0.0000 C   0  0  0  0  0  0  0  0  0  0  0  0
   10.7171   -2.8875    0.0000 C   0  0  0  0  0  0  0  0  0  0  0  0
   11.4315   -3.3000    0.0000 O   0  0  0  0  0  0  0  0  0  0  0  0
   12.1460   -2.8875    0.0000 C   0  0  0  0  0  0  0  0  0  0  0  0
   10.0026   -3.3000    0.0000 C   0  0  0  0  0  0  0  0  0  0  0  0
   10.0026   -4.1250    0.0000 O   0  0  0  0  0  0  0  0  0  0  0  0
    9.2881   -4.5375    0.0000 C   0  0  0  0  0  0  0  0  0  0  0  0
    9.2881   -2.8875    0.0000 C   0  0  0  0  0  0  0  0  0  0  0  0
   -0.7145   -2.8875    0.0000 C   0  0  0  0  0  0  0  0  0  0  0  0
    0.0000   -3.3000    0.0000 C   0  0  0  0  0  0  0  0  0  0  0  0
    0.0000   -4.1250    0.0000 C   0  0  0  0  0  0  0  0  0  0  0  0
   -0.7145   -4.5375    0.0000 C   0  0  0  0  0  0  0  0  0  0  0  0
   -0.7145   -5.3625    0.0000 O   0  0  0  0  0  0  0  0  0  0  0  0
   -1.4289   -5.7750    0.0000 C   0  0  0  0  0  0  0  0  0  0  0  0
   -1.4289   -4.1250    0.0000 C   0  0  0  0  0  0  0  0  0  0  0  0
   -1.4289   -3.3000    0.0000 C   0  0  0  0  0  0  0  0  0  0  0  0
  1  2  1  0  0  0  0
  2  3  1  0  0  0  0
  3  4  2  0  0  0  0
  3  8  1  0  0  0  0
  4  5  1  0  0  0  0
  5  6  2  0  0  0  0
  6  7  1  0  0  0  0
  6  9  1  0  0  0  0
  7  8  2  0  0  0  0
  9 10  1  0  0  0  0
  9 38  1  0  0  0  0
 10 11  2  0  0  0  0
 10 12  1  0  0  0  0
 12 13  1  0  0  0  0
 13 14  1  0  0  0  0
 14 15  1  0  0  0  0
 15 16  1  0  0  0  0
 16 17  1  0  0  0  0
 16 18  1  0  0  0  0
 18 19  1  0  0  0  0
 19 20  1  0  0  0  0
 20 21  1  0  0  0  0
 21 22  1  0  0  0  0
 22 23  2  0  0  0  0
 22 24  1  0  0  0  0
 24 25  2  0  0  0  0
 25 26  1  0  0  0  0
 26 27  2  0  0  0  0
 26 37  1  0  0  0  0
 27 28  1  0  0  0  0
 28 29  1  0  0  0  0
 28 31  2  0  0  0  0
 29 30  1  0  0  0  0
 31 32  1  0  0  0  0
 31 34  1  0  0  0  0
 32 33  1  0  0  0  0
 34 35  1  0  0  0  0
 34 37  2  0  0  0  0
 35 36  1  0  0  0  0
 38 39  2  0  0  0  0
 38 45  1  0  0  0  0
 39 40  1  0  0  0  0
 40 41  2  0  0  0  0
 41 42  1  0  0  0  0
 41 44  1  0  0  0  0
 42 43  1  0  0  0  0
 44 45  2  0  0  0  0
M  END
$$$$

 OpenBabel12191814062D

 30 31  0  0  0  0  0  0  0  0999 V2000
    3.5724   -2.8875    0.0000 C   0  0  0  0  0  0  0  0  0  0  0  0
    4.2868   -3.3000    0.0000 O   0  0  0  0  0  0  0  0  0  0  0  0
    4.2868   -4.1250    0.0000 C   0  0  0  0  0  0  0  0  0  0  0  0
    5.0013   -4.5375    0.0000 C   0  0  0  0  0  0  0  0  0  0  0  0
    5.0013   -5.3625    0.0000 C   0  0  0  0  0  0  0  0  0  0  0  0
    4.2868   -5.7750    0.0000 C   0  0  0  0  0  0  0  0  0  0  0  0
    3.5724   -5.3625    0.0000 C   0  0  0  0  0  0  0  0  0  0  0  0
    3.5724   -4.5375    0.0000 C   0  0  0  0  0  0  0  0  0  0  0  0
    4.2868   -6.6000    0.0000 C   0  0  3  0  0  0  0  0  0  0  0  0
    4.2868   -7.4250    0.0000 C   0  0  0  0  0  0  0  0  0  0  0  0
    3.5724   -7.8375    0.0000 C   0  0  0  0  0  0  0  0  0  0  0  0
    3.5724   -8.6625    0.0000 N   0  0  0  0  0  0  0  0  0  0  0  0
    4.2868   -9.0750    0.0000 C   0  0  0  0  0  0  0  0  0  0  0  0
    2.8579   -9.0750    0.0000 C   0  0  0  0  0  0  0  0  0  0  0  0
    2.8579   -9.9000    0.0000 C   0  0  0  0  0  0  0  0  0  0  0  0
    2.1434  -10.3125    0.0000 C   0  0  0  0  0  0  0  0  0  0  0  0
    2.1434  -11.1375    0.0000 C   0  0  0  0  0  0  0  0  0  0  0  0
    1.4289  -11.5500    0.0000 C   0  0  0  0  0  0  0  0  0  0  0  0
    0.7145  -11.1375    0.0000 C   0  0  0  0  0  0  0  0  0  0  0  0
   -0.0000  -11.5500    0.0000 O   0  0  0  0  0  0  0  0  0  0  0  0
   -0.0000  -12.3750    0.0000 C   0  0  0  0  0  0  0  0  0  0  0  0
    0.7145  -10.3125    0.0000 C   0  0  0  0  0  0  0  0  0  0  0  0
   -0.0000   -9.9000    0.0000 O   0  0  0  0  0  0  0  0  0  0  0  0
   -0.0000   -9.0750    0.0000 C   0  0  0  0  0  0  0  0  0  0  0  0
    1.4289   -9.9000    0.0000 C   0  0  0  0  0  0  0  0  0  0  0  0
    3.4618   -6.6000    0.0000 C   0  0  0  0  0  0  0  0  0  0  0  0
    2.6368   -6.6000    0.0000 N   0  0  0  0  0  0  0  0  0  0  0  0
    5.1118   -6.6000    0.0000 C   0  0  0  0  0  0  0  0  0  0  0  0
    5.5243   -7.3145    0.0000 C   0  0  0  0  0  0  0  0  0  0  0  0
    5.5243   -5.8855    0.0000 C   0  0  0  0  0  0  0  0  0  0  0  0
  1  2  1  0  0  0  0
  2  3  1  0  0  0  0
  3  4  2  0  0  0  0
  3  8  1  0  0  0  0
  4  5  1  0  0  0  0
  5  6  2  0  0  0  0
  6  7  1  0  0  0  0
  6  9  1  0  0  0  0
  7  8  2  0  0  0  0
  9 10  1  0  0  0  0
  9 26  1  0  0  0  0
  9 28  1  0  0  0  0
 10 11  1  0  0  0  0
 11 12  1  0  0  0  0
 12 13  1  0  0  0  0
 12 14  1  0  0  0  0
 14 15  1  0  0  0  0
 15 16  1  0  0  0  0
 16 17  2  0  0  0  0
 16 25  1  0  0  0  0
 17 18  1  0  0  0  0
 18 19  2  0  0  0  0
 19 20  1  0  0  0  0
 19 22  1  0  0  0  0
 20 21  1  0  0  0  0
 22 23  1  0  0  0  0
 22 25  2  0  0  0  0
 23 24  1  0  0  0  0
 26 27  3  0  0  0  0
 28 29  1  0  0  0  0
 28 30  1  0  0  0  0
M  END
$$$$

 OpenBabel12191814062D

 30 32  0  0  0  0  0  0  0  0999 V2000
   -0.7145   -1.2375    0.0000 C   0  0  0  0  0  0  0  0  0  0  0  0
    0.0000   -1.6500    0.0000 O   0  0  0  0  0  0  0  0  0  0  0  0
    0.0000   -2.4750    0.0000 C   0  0  0  0  0  0  0  0  0  0  0  0
    0.7145   -2.8875    0.0000 C   0  0  0  0  0  0  0  0  0  0  0  0
    0.7145   -3.7125    0.0000 C   0  0  0  0  0  0  0  0  0  0  0  0
    0.0000   -4.1250    0.0000 C   0  0  0  0  0  0  0  0  0  0  0  0
   -0.7145   -3.7125    0.0000 C   0  0  0  0  0  0  0  0  0  0  0  0
   -0.7145   -2.8875    0.0000 C   0  0  0  0  0  0  0  0  0  0  0  0
    0.0000   -4.9500    0.0000 C   0  0  0  0  0  0  0  0  0  0  0  0
    0.7145   -5.3625    0.0000 C   0  0  0  0  0  0  0  0  0  0  0  0
    1.4289   -4.9500    0.0000 N   0  0  0  0  0  0  0  0  0  0  0  0
    1.4289   -4.1250    0.0000 C   0  0  0  0  0  0  0  0  0  0  0  0
    2.1434   -5.3625    0.0000 C   0  0  0  0  0  0  0  0  0  0  0  0
   -0.7145   -5.3625    0.0000 C   0  0  0  0  0  0  0  0  0  0  0  0
   -1.4289   -4.9500    0.0000 C   0  0  0  0  0  0  0  0  0  0  0  0
   -2.1434   -5.3625    0.0000 C   0  0  0  0  0  0  0  0  0  0  0  0
   -2.8579   -4.9500    0.0000 C   0  0  0  0  0  0  0  0  0  0  0  0
   -2.8579   -4.1250    0.0000 C   0  0  0  0  0  0  0  0  0  0  0  0
   -3.5724   -3.7125    0.0000 O   0  0  0  0  0  0  0  0  0  0  0  0
   -4.2868   -4.1250    0.0000 C   0  0  0  0  0  0  0  0  0  0  0  0
   -2.1434   -3.7125    0.0000 C   0  0  0  0  0  0  0  0  0  0  0  0
   -1.4289   -4.1250    0.0000 C   0  0  0  0  0  0  0  0  0  0  0  0
   -0.7145   -6.1875    0.0000 C   0  0  0  0  0  0  0  0  0  0  0  0
    0.0000   -6.6000    0.0000 C   0  0  0  0  0  0  0  0  0  0  0  0
   -0.0000   -7.4250    0.0000 C   0  0  0  0  0  0  0  0  0  0  0  0
   -0.7145   -7.8375    0.0000 C   0  0  0  0  0  0  0  0  0  0  0  0
   -0.7145   -8.6625    0.0000 O   0  0  0  0  0  0  0  0  0  0  0  0
   -1.4289   -9.0750    0.0000 C   0  0  0  0  0  0  0  0  0  0  0  0
   -1.4289   -7.4250    0.0000 C   0  0  0  0  0  0  0  0  0  0  0  0
   -1.4289   -6.6000    0.0000 C   0  0  0  0  0  0  0  0  0  0  0  0
  1  2  1  0  0  0  0
  2  3  1  0  0  0  0
  3  4  2  0  0  0  0
  3  8  1  0  0  0  0
  4  5  1  0  0  0  0
  5  6  2  0  0  0  0
  6  7  1  0  0  0  0
  6  9  1  0  0  0  0
  7  8  2  0  0  0  0
  9 10  1  0  0  0  0
  9 14  2  0  0  0  0
 10 11  1  0  0  0  0
 11 12  1  0  0  0  0
 11 13  1  0  0  0  0
 14 15  1  0  0  0  0
 14 23  1  0  0  0  0
 15 16  2  0  0  0  0
 15 22  1  0  0  0  0
 16 17  1  0  0  0  0
 17 18  2  0  0  0  0
 18 19  1  0  0  0  0
 18 21  1  0  0  0  0
 19 20  1  0  0  0  0
 21 22  2  0  0  0  0
 23 24  2  0  0  0  0
 23 30  1  0  0  0  0
 24 25  1  0  0  0  0
 25 26  2  0  0  0  0
 26 27  1  0  0  0  0
 26 29  1  0  0  0  0
 27 28  1  0  0  0  0
 29 30  2  0  0  0  0
M  END
$$$$

 OpenBabel12191814062D

 36 40  0  0  0  0  0  0  0  0999 V2000
   -1.8310    1.2236    0.0000 C   0  0  0  0  0  0  0  0  0  0  0  0
   -1.0241    1.3951    0.0000 O   0  0  0  0  0  0  0  0  0  0  0  0
   -0.4720    0.7820    0.0000 C   0  0  0  0  0  0  0  0  0  0  0  0
    0.3349    0.9536    0.0000 C   0  0  0  0  0  0  0  0  0  0  0  0
    0.8870    0.3405    0.0000 C   0  0  0  0  0  0  0  0  0  0  0  0
    0.6320   -0.4441    0.0000 C   0  0  0  0  0  0  0  0  0  0  0  0
   -0.1749   -0.6157    0.0000 C   0  0  0  0  0  0  0  0  0  0  0  0
   -0.7270   -0.0026    0.0000 C   0  0  0  0  0  0  0  0  0  0  0  0
    1.1841   -1.0572    0.0000 C   0  0  3  0  0  0  0  0  0  0  0  0
    1.8515   -1.5422    0.0000 N   0  0  0  0  0  0  0  0  0  0  0  0
    1.5966   -2.3268    0.0000 C   0  0  0  0  0  0  0  0  0  0  0  0
    2.0815   -2.9942    0.0000 O   0  0  0  0  0  0  0  0  0  0  0  0
    0.7716   -2.3268    0.0000 N   0  0  0  0  0  0  0  0  0  0  0  0
    0.2866   -2.9942    0.0000 C   0  0  0  0  0  0  0  0  0  0  0  0
   -0.5338   -2.9080    0.0000 C   0  0  0  0  0  0  0  0  0  0  0  0
   -1.0188   -3.5754    0.0000 C   0  0  0  0  0  0  0  0  0  0  0  0
   -1.8392   -3.4892    0.0000 N   0  0  0  0  0  0  0  0  0  0  0  0
   -2.3242   -4.1566    0.0000 C   0  0  0  0  0  0  0  0  0  0  0  0
   -3.1447   -4.0704    0.0000 C   0  0  0  0  0  0  0  0  0  0  0  0
   -3.4802   -3.3167    0.0000 C   0  0  3  0  0  0  0  0  0  0  0  0
   -2.9953   -2.6493    0.0000 C   0  0  0  0  0  0  0  0  0  0  0  0
   -2.1748   -2.7355    0.0000 C   0  0  0  0  0  0  0  0  0  0  0  0
   -4.3007   -3.2305    0.0000 C   0  0  0  0  0  0  0  0  0  0  0  0
   -4.7856   -3.8979    0.0000 C   0  0  0  0  0  0  0  0  0  0  0  0
   -5.6061   -3.8117    0.0000 C   0  0  0  0  0  0  0  0  0  0  0  0
   -5.9417   -3.0580    0.0000 C   0  0  0  0  0  0  0  0  0  0  0  0
   -5.4567   -2.3906    0.0000 C   0  0  0  0  0  0  0  0  0  0  0  0
   -4.6362   -2.4768    0.0000 C   0  0  0  0  0  0  0  0  0  0  0  0
    0.5166   -1.5422    0.0000 C   0  0  0  0  0  0  0  0  0  0  0  0
   -0.2680   -1.2872    0.0000 O   0  0  0  0  0  0  0  0  0  0  0  0
    1.7361   -0.4441    0.0000 C   0  0  0  0  0  0  0  0  0  0  0  0
    1.4812    0.3405    0.0000 C   0  0  0  0  0  0  0  0  0  0  0  0
    2.0332    0.9536    0.0000 C   0  0  0  0  0  0  0  0  0  0  0  0
    2.8402    0.7820    0.0000 C   0  0  0  0  0  0  0  0  0  0  0  0
    3.0951   -0.0026    0.0000 C   0  0  0  0  0  0  0  0  0  0  0  0
    2.5431   -0.6157    0.0000 C   0  0  0  0  0  0  0  0  0  0  0  0
  1  2  1  0  0  0  0
  2  3  1  0  0  0  0
  3  4  2  0  0  0  0
  3  8  1  0  0  0  0
  4  5  1  0  0  0  0
  5  6  2  0  0  0  0
  6  7  1  0  0  0  0
  6  9  1  0  0  0  0
  7  8  2  0  0  0  0
  9 10  1  0  0  0  0
  9 29  1  0  0  0  0
  9 31  1  0  0  0  0
 10 11  1  0  0  0  0
 11 12  2  0  0  0  0
 11 13  1  0  0  0  0
 13 14  1  0  0  0  0
 13 29  1  0  0  0  0
 14 15  1  0  0  0  0
 15 16  1  0  0  0  0
 16 17  1  0  0  0  0
 17 18  1  0  0  0  0
 17 22  1  0  0  0  0
 18 19  1  0  0  0  0
 19 20  1  0  0  0  0
 20 21  1  0  0  0  0
 20 23  1  0  0  0  0
 21 22  1  0  0  0  0
 23 24  2  0  0  0  0
 23 28  1  0  0  0  0
 24 25  1  0  0  0  0
 25 26  2  0  0  0  0
 26 27  1  0  0  0  0
 27 28  2  0  0  0  0
 29 30  2  0  0  0  0
 31 32  2  0  0  0  0
 31 36  1  0  0  0  0
 32 33  1  0  0  0  0
 33 34  2  0  0  0  0
 34 35  1  0  0  0  0
 35 36  2  0  0  0  0
M  END
$$$$

 OpenBabel12191814062D

 47 50  0  0  0  0  0  0  0  0999 V2000
   -0.7145    3.7125    0.0000 C   0  0  0  0  0  0  0  0  0  0  0  0
    0.0000    3.3000    0.0000 O   0  0  0  0  0  0  0  0  0  0  0  0
    0.0000    2.4750    0.0000 C   0  0  0  0  0  0  0  0  0  0  0  0
    0.7145    2.0625    0.0000 C   0  0  0  0  0  0  0  0  0  0  0  0
    0.7145    1.2375    0.0000 C   0  0  0  0  0  0  0  0  0  0  0  0
    0.0000    0.8250    0.0000 C   0  0  0  0  0  0  0  0  0  0  0  0
   -0.7145    1.2375    0.0000 C   0  0  0  0  0  0  0  0  0  0  0  0
   -0.7145    2.0625    0.0000 C   0  0  0  0  0  0  0  0  0  0  0  0
    0.0000   -0.0000    0.0000 C   0  0  0  0  0  0  0  0  0  0  0  0
   -0.7145   -0.4125    0.0000 C   0  0  0  0  0  0  0  0  0  0  0  0
   -1.4289   -0.0000    0.0000 C   0  0  0  0  0  0  0  0  0  0  0  0
   -2.1434    0.4125    0.0000 N   0  0  0  0  0  0  0  0  0  0  0  0
   -0.7145   -1.2375    0.0000 C   0  0  0  0  0  0  0  0  0  0  0  0
   -1.4289   -1.6500    0.0000 S   0  0  0  0  0  0  0  0  0  0  0  0
    0.0000   -1.6500    0.0000 N   0  0  0  0  0  0  0  0  0  0  0  0
    0.0000   -2.4750    0.0000 C   0  0  3  0  0  0  0  0  0  0  0  0
    0.7145   -2.8875    0.0000 O   0  0  0  0  0  0  0  0  0  0  0  0
    0.7145   -3.7125    0.0000 C   0  0  3  0  0  0  0  0  0  0  0  0
    1.4289   -4.1250    0.0000 C   0  0  0  0  0  0  0  0  0  0  0  0
    2.1434   -3.7125    0.0000 O   0  0  0  0  0  0  0  0  0  0  0  0
    2.8579   -4.1250    0.0000 C   0  0  0  0  0  0  0  0  0  0  0  0
    3.5724   -3.7125    0.0000 C   0  0  0  0  0  0  0  0  0  0  0  0
    2.8579   -4.9500    0.0000 O   0  0  0  0  0  0  0  0  0  0  0  0
    0.0000   -4.1250    0.0000 C   0  0  3  0  0  0  0  0  0  0  0  0
    0.0000   -4.9500    0.0000 O   0  0  0  0  0  0  0  0  0  0  0  0
    0.7145   -5.3625    0.0000 C   0  0  0  0  0  0  0  0  0  0  0  0
    1.4289   -4.9500    0.0000 C   0  0  0  0  0  0  0  0  0  0  0  0
    0.7145   -6.1875    0.0000 O   0  0  0  0  0  0  0  0  0  0  0  0
   -0.7145   -3.7125    0.0000 C   0  0  3  0  0  0  0  0  0  0  0  0
   -1.4289   -4.1250    0.0000 O   0  0  0  0  0  0  0  0  0  0  0  0
   -1.4289   -4.9500    0.0000 C   0  0  0  0  0  0  0  0  0  0  0  0
   -0.7145   -5.3625    0.0000 C   0  0  0  0  0  0  0  0  0  0  0  0
   -2.1434   -5.3625    0.0000 O   0  0  0  0  0  0  0  0  0  0  0  0
   -0.7145   -2.8875    0.0000 C   0  0  3  0  0  0  0  0  0  0  0  0
   -1.4289   -2.4750    0.0000 O   0  0  0  0  0  0  0  0  0  0  0  0
   -2.1434   -2.8875    0.0000 C   0  0  0  0  0  0  0  0  0  0  0  0
   -2.1434   -3.7125    0.0000 C   0  0  0  0  0  0  0  0  0  0  0  0
   -2.8579   -2.4750    0.0000 O   0  0  0  0  0  0  0  0  0  0  0  0
    0.7145   -1.2375    0.0000 C   0  0  0  0  0  0  0  0  0  0  0  0
    0.7145   -0.4125    0.0000 C   0  0  0  0  0  0  0  0  0  0  0  0
    1.4289   -0.0000    0.0000 C   0  0  0  0  0  0  0  0  0  0  0  0
    1.4289    0.8250    0.0000 O   0  0  0  0  0  0  0  0  0  0  0  0
    2.1434   -0.4125    0.0000 C   0  0  0  0  0  0  0  0  0  0  0  0
    2.1434   -1.2375    0.0000 C   0  0  0  0  0  0  0  0  0  0  0  0
    2.9559   -1.0942    0.0000 C   0  0  0  0  0  0  0  0  0  0  0  0
    2.4256   -2.0127    0.0000 C   0  0  0  0  0  0  0  0  0  0  0  0
    1.4289   -1.6500    0.0000 C   0  0  0  0  0  0  0  0  0  0  0  0
  1  2  1  0  0  0  0
  2  3  1  0  0  0  0
  3  4  2  0  0  0  0
  3  8  1  0  0  0  0
  4  5  1  0  0  0  0
  5  6  2  0  0  0  0
  6  7  1  0  0  0  0
  6  9  1  0  0  0  0
  7  8  2  0  0  0  0
  9 10  2  0  0  0  0
  9 40  1  0  0  0  0
 10 11  1  0  0  0  0
 10 13  1  0  0  0  0
 11 12  3  0  0  0  0
 13 14  2  0  0  0  0
 13 15  1  0  0  0  0
 15 16  1  0  0  0  0
 15 39  1  0  0  0  0
 16 17  1  0  0  0  0
 16 34  1  0  0  0  0
 17 18  1  0  0  0  0
 18 19  1  0  0  0  0
 18 24  1  0  0  0  0
 19 20  1  0  0  0  0
 20 21  1  0  0  0  0
 21 22  1  0  0  0  0
 21 23  2  0  0  0  0
 24 25  1  0  0  0  0
 24 29  1  0  0  0  0
 25 26  1  0  0  0  0
 26 27  1  0  0  0  0
 26 28  2  0  0  0  0
 29 30  1  0  0  0  0
 29 34  1  0  0  0  0
 30 31  1  0  0  0  0
 31 32  1  0  0  0  0
 31 33  2  0  0  0  0
 34 35  1  0  0  0  0
 35 36  1  0  0  0  0
 36 37  1  0  0  0  0
 36 38  2  0  0  0  0
 39 40  2  0  0  0  0
 39 47  1  0  0  0  0
 40 41  1  0  0  0  0
 41 42  2  0  0  0  0
 41 43  1  0  0  0  0
 43 44  1  0  0  0  0
 44 45  1  0  0  0  0
 44 46  1  0  0  0  0
 44 47  1  0  0  0  0
M  END
$$$$

 OpenBabel12191814062D

 27 29  0  0  0  0  0  0  0  0999 V2000
   -2.1434   -3.7125    0.0000 C   0  0  0  0  0  0  0  0  0  0  0  0
   -2.1434   -2.8875    0.0000 O   0  0  0  0  0  0  0  0  0  0  0  0
   -1.4289   -2.4750    0.0000 C   0  0  0  0  0  0  0  0  0  0  0  0
   -1.4289   -1.6500    0.0000 C   0  0  0  0  0  0  0  0  0  0  0  0
   -0.7145   -1.2375    0.0000 C   0  0  0  0  0  0  0  0  0  0  0  0
    0.0000   -1.6500    0.0000 C   0  0  0  0  0  0  0  0  0  0  0  0
    0.0000   -2.4750    0.0000 C   0  0  0  0  0  0  0  0  0  0  0  0
   -0.7145   -2.8875    0.0000 C   0  0  0  0  0  0  0  0  0  0  0  0
    0.7145   -1.2375    0.0000 C   0  0  0  0  0  0  0  0  0  0  0  0
    0.7145   -0.4125    0.0000 C   0  0  0  0  0  0  0  0  0  0  0  0
    1.4289    0.0000    0.0000 C   0  0  0  0  0  0  0  0  0  0  0  0
    1.4289    0.8250    0.0000 O   0  0  0  0  0  0  0  0  0  0  0  0
    2.1434   -0.4125    0.0000 C   0  0  0  0  0  0  0  0  0  0  0  0
    2.8579    0.0000    0.0000 C   0  0  0  0  0  0  0  0  0  0  0  0
    2.8579    0.8250    0.0000 O   0  0  0  0  0  0  0  0  0  0  0  0
    3.5724    1.2375    0.0000 C   0  0  0  0  0  0  0  0  0  0  0  0
    3.5724   -0.4125    0.0000 C   0  0  0  0  0  0  0  0  0  0  0  0
    4.2868   -0.0000    0.0000 O   0  0  0  0  0  0  0  0  0  0  0  0
    4.2868    0.8250    0.0000 C   0  0  0  0  0  0  0  0  0  0  0  0
    3.5724   -1.2375    0.0000 C   0  0  0  0  0  0  0  0  0  0  0  0
    4.2868   -1.6500    0.0000 O   0  0  0  0  0  0  0  0  0  0  0  0
    4.2868   -2.4750    0.0000 C   0  0  0  0  0  0  0  0  0  0  0  0
    2.8579   -1.6500    0.0000 C   0  0  0  0  0  0  0  0  0  0  0  0
    2.8579   -2.4750    0.0000 O   0  0  0  0  0  0  0  0  0  0  0  0
    2.1434   -2.8875    0.0000 C   0  0  0  0  0  0  0  0  0  0  0  0
    2.1434   -1.2375    0.0000 C   0  0  0  0  0  0  0  0  0  0  0  0
    1.4289   -1.6500    0.0000 O   0  0  0  0  0  0  0  0  0  0  0  0
  1  2  1  0  0  0  0
  2  3  1  0  0  0  0
  3  4  2  0  0  0  0
  3  8  1  0  0  0  0
  4  5  1  0  0  0  0
  5  6  2  0  0  0  0
  6  7  1  0  0  0  0
  6  9  1  0  0  0  0
  7  8  2  0  0  0  0
  9 10  2  0  0  0  0
  9 27  1  0  0  0  0
 10 11  1  0  0  0  0
 11 12  2  0  0  0  0
 11 13  1  0  0  0  0
 13 14  2  0  0  0  0
 13 26  1  0  0  0  0
 14 15  1  0  0  0  0
 14 17  1  0  0  0  0
 15 16  1  0  0  0  0
 17 18  1  0  0  0  0
 17 20  2  0  0  0  0
 18 19  1  0  0  0  0
 20 21  1  0  0  0  0
 20 23  1  0  0  0  0
 21 22  1  0  0  0  0
 23 24  1  0  0  0  0
 23 26  2  0  0  0  0
 24 25  1  0  0  0  0
 26 27  1  0  0  0  0
M  END
$$$$

 OpenBabel12191814062D

 49 52  0  0  0  0  0  0  0  0999 V2000
    3.5724   -1.2375    0.0000 C   0  0  0  0  0  0  0  0  0  0  0  0
    2.8579   -1.6500    0.0000 O   0  0  0  0  0  0  0  0  0  0  0  0
    2.8579   -2.4750    0.0000 C   0  0  0  0  0  0  0  0  0  0  0  0
    3.5724   -2.8875    0.0000 C   0  0  0  0  0  0  0  0  0  0  0  0
    3.5724   -3.7125    0.0000 C   0  0  0  0  0  0  0  0  0  0  0  0
    2.8579   -4.1250    0.0000 C   0  0  0  0  0  0  0  0  0  0  0  0
    2.1434   -3.7125    0.0000 C   0  0  0  0  0  0  0  0  0  0  0  0
    2.1434   -2.8875    0.0000 C   0  0  0  0  0  0  0  0  0  0  0  0
    2.8579   -4.9500    0.0000 C   0  0  3  0  0  0  0  0  0  0  0  0
    3.5724   -5.3625    0.0000 C   0  0  3  0  0  0  0  0  0  0  0  0
    4.2868   -4.9500    0.0000 C   0  0  0  0  0  0  0  0  0  0  0  0
    5.0013   -4.5375    0.0000 N   0  0  0  0  0  0  0  0  0  0  0  0
    3.5724   -6.1875    0.0000 C   0  0  0  0  0  0  0  0  0  0  0  0
    4.2868   -6.6000    0.0000 S   0  0  0  0  0  0  0  0  0  0  0  0
    2.8579   -6.6000    0.0000 N   0  0  0  0  0  0  0  0  0  0  0  0
    2.8579   -7.4250    0.0000 C   0  0  3  0  0  0  0  0  0  0  0  0
    2.1434   -7.8375    0.0000 O   0  0  0  0  0  0  0  0  0  0  0  0
    2.1434   -8.6625    0.0000 C   0  0  3  0  0  0  0  0  0  0  0  0
    1.4289   -9.0750    0.0000 C   0  0  0  0  0  0  0  0  0  0  0  0
    0.7145   -8.6625    0.0000 O   0  0  0  0  0  0  0  0  0  0  0  0
   -0.0000   -9.0750    0.0000 C   0  0  0  0  0  0  0  0  0  0  0  0
   -0.0000   -9.9000    0.0000 C   0  0  0  0  0  0  0  0  0  0  0  0
   -0.7145   -8.6625    0.0000 O   0  0  0  0  0  0  0  0  0  0  0  0
    2.8579   -9.0750    0.0000 C   0  0  3  0  0  0  0  0  0  0  0  0
    2.8579   -9.9000    0.0000 O   0  0  0  0  0  0  0  0  0  0  0  0
    2.1434  -10.3125    0.0000 C   0  0  0  0  0  0  0  0  0  0  0  0
    2.1434  -11.1375    0.0000 C   0  0  0  0  0  0  0  0  0  0  0  0
    1.4289   -9.9000    0.0000 O   0  0  0  0  0  0  0  0  0  0  0  0
    3.5724   -8.6625    0.0000 C   0  0  3  0  0  0  0  0  0  0  0  0
    4.2868   -9.0750    0.0000 O   0  0  0  0  0  0  0  0  0  0  0  0
    4.2868   -9.9000    0.0000 C   0  0  0  0  0  0  0  0  0  0  0  0
    5.0013  -10.3125    0.0000 C   0  0  0  0  0  0  0  0  0  0  0  0
    3.5724  -10.3125    0.0000 O   0  0  0  0  0  0  0  0  0  0  0  0
    3.5724   -7.8375    0.0000 C   0  0  3  0  0  0  0  0  0  0  0  0
    4.2868   -7.4250    0.0000 O   0  0  0  0  0  0  0  0  0  0  0  0
    5.0013   -7.8375    0.0000 C   0  0  0  0  0  0  0  0  0  0  0  0
    5.7158   -7.4250    0.0000 C   0  0  0  0  0  0  0  0  0  0  0  0
    5.0013   -8.6625    0.0000 O   0  0  0  0  0  0  0  0  0  0  0  0
    2.1434   -6.1875    0.0000 C   0  0  0  0  0  0  0  0  0  0  0  0
    2.1434   -5.3625    0.0000 C   0  0  0  0  0  0  0  0  0  0  0  0
    1.4289   -4.9500    0.0000 C   0  0  0  0  0  0  0  0  0  0  0  0
    1.4289   -4.1250    0.0000 C   0  0  0  0  0  0  0  0  0  0  0  0
    0.7145   -5.3625    0.0000 O   0  0  0  0  0  0  0  0  0  0  0  0
    1.4289   -6.6000    0.0000 C   0  0  0  0  0  0  0  0  0  0  0  0
    1.4289   -7.4250    0.0000 C   0  0  0  0  0  0  0  0  0  0  0  0
    0.7145   -7.8375    0.0000 C   0  0  0  0  0  0  0  0  0  0  0  0
    0.0000   -7.4250    0.0000 C   0  0  0  0  0  0  0  0  0  0  0  0
    0.0000   -6.6000    0.0000 C   0  0  0  0  0  0  0  0  0  0  0  0
    0.7145   -6.1875    0.0000 C   0  0  0  0  0  0  0  0  0  0  0  0
  1  2  1  0  0  0  0
  2  3  1  0  0  0  0
  3  4  2  0  0  0  0
  3  8  1  0  0  0  0
  4  5  1  0  0  0  0
  5  6  2  0  0  0  0
  6  7  1  0  0  0  0
  6  9  1  0  0  0  0
  7  8  2  0  0  0  0
  9 10  1  0  0  0  0
  9 40  1  0  0  0  0
 10 11  1  0  0  0  0
 10 13  1  0  0  0  0
 11 12  3  0  0  0  0
 13 14  2  0  0  0  0
 13 15  1  0  0  0  0
 15 16  1  0  0  0  0
 15 39  1  0  0  0  0
 16 17  1  0  0  0  0
 16 34  1  0  0  0  0
 17 18  1  0  0  0  0
 18 19  1  0  0  0  0
 18 24  1  0  0  0  0
 19 20  1  0  0  0  0
 20 21  1  0  0  0  0
 21 22  1  0  0  0  0
 21 23  2  0  0  0  0
 24 25  1  0  0  0  0
 24 29  1  0  0  0  0
 25 26  1  0  0  0  0
 26 27  1  0  0  0  0
 26 28  2  0  0  0  0
 29 30  1  0  0  0  0
 29 34  1  0  0  0  0
 30 31  1  0  0  0  0
 31 32  1  0  0  0  0
 31 33  2  0  0  0  0
 34 35  1  0  0  0  0
 35 36  1  0  0  0  0
 36 37  1  0  0  0  0
 36 38  2  0  0  0  0
 39 40  2  0  0  0  0
 39 44  1  0  0  0  0
 40 41  1  0  0  0  0
 41 42  1  0  0  0  0
 41 43  2  0  0  0  0
 44 45  2  0  0  0  0
 44 49  1  0  0  0  0
 45 46  1  0  0  0  0
 46 47  2  0  0  0  0
 47 48  1  0  0  0  0
 48 49  2  0  0  0  0
M  END
$$$$

 OpenBabel12191814062D

 26 28  0  0  0  0  0  0  0  0999 V2000
    0.7145   -3.7125    0.0000 C   0  0  0  0  0  0  0  0  0  0  0  0
    1.4289   -4.1250    0.0000 O   0  0  0  0  0  0  0  0  0  0  0  0
    1.4289   -4.9500    0.0000 C   0  0  0  0  0  0  0  0  0  0  0  0
    2.1434   -5.3625    0.0000 C   0  0  0  0  0  0  0  0  0  0  0  0
    2.1434   -6.1875    0.0000 C   0  0  0  0  0  0  0  0  0  0  0  0
    1.4289   -6.6000    0.0000 C   0  0  0  0  0  0  0  0  0  0  0  0
    0.7145   -6.1875    0.0000 C   0  0  0  0  0  0  0  0  0  0  0  0
    0.7145   -5.3625    0.0000 C   0  0  0  0  0  0  0  0  0  0  0  0
    1.4289   -7.4250    0.0000 C   0  0  3  0  0  0  0  0  0  0  0  0
    2.1434   -7.8375    0.0000 C   0  0  0  0  0  0  0  0  0  0  0  0
    2.1434   -8.6625    0.0000 C   0  0  0  0  0  0  0  0  0  0  0  0
    1.4289   -9.0750    0.0000 N   0  0  0  0  0  0  0  0  0  0  0  0
    0.7145   -8.6625    0.0000 C   0  0  0  0  0  0  0  0  0  0  0  0
    0.7145   -7.8375    0.0000 C   0  0  0  0  0  0  0  0  0  0  0  0
    0.0000   -7.4250    0.0000 C   0  0  0  0  0  0  0  0  0  0  0  0
    0.0000   -6.6000    0.0000 C   0  0  0  0  0  0  0  0  0  0  0  0
   -0.7145   -7.8375    0.0000 O   0  0  0  0  0  0  0  0  0  0  0  0
    1.4289   -9.9000    0.0000 C   0  0  0  0  0  0  0  0  0  0  0  0
    0.7145  -10.3125    0.0000 O   0  0  0  0  0  0  0  0  0  0  0  0
    2.1434  -10.3125    0.0000 O   0  0  0  0  0  0  0  0  0  0  0  0
    2.1434  -11.1375    0.0000 C   0  0  0  0  0  0  0  0  0  0  0  0
    2.8579  -11.5500    0.0000 C   0  0  0  0  0  0  0  0  0  0  0  0
    2.8579  -12.3750    0.0000 C   0  0  0  0  0  0  0  0  0  0  0  0
    2.1434  -12.7875    0.0000 C   0  0  0  0  0  0  0  0  0  0  0  0
    1.4289  -12.3750    0.0000 C   0  0  0  0  0  0  0  0  0  0  0  0
    1.4289  -11.5500    0.0000 C   0  0  0  0  0  0  0  0  0  0  0  0
  1  2  1  0  0  0  0
  2  3  1  0  0  0  0
  3  4  2  0  0  0  0
  3  8  1  0  0  0  0
  4  5  1  0  0  0  0
  5  6  2  0  0  0  0
  6  7  1  0  0  0  0
  6  9  1  0  0  0  0
  7  8  2  0  0  0  0
  9 10  1  0  0  0  0
  9 14  1  0  0  0  0
 10 11  2  0  0  0  0
 11 12  1  0  0  0  0
 12 13  1  0  0  0  0
 12 18  1  0  0  0  0
 13 14  2  0  0  0  0
 14 15  1  0  0  0  0
 15 16  1  0  0  0  0
 15 17  2  0  0  0  0
 18 19  2  0  0  0  0
 18 20  1  0  0  0  0
 20 21  1  0  0  0  0
 21 22  2  0  0  0  0
 21 26  1  0  0  0  0
 22 23  1  0  0  0  0
 23 24  2  0  0  0  0
 24 25  1  0  0  0  0
 25 26  2  0  0  0  0
M  END
$$$$

 OpenBabel12191814062D

 23 25  0  0  0  0  0  0  0  0999 V2000
   -2.1434   -3.7125    0.0000 C   0  0  0  0  0  0  0  0  0  0  0  0
   -2.1434   -2.8875    0.0000 O   0  0  0  0  0  0  0  0  0  0  0  0
   -1.4289   -2.4750    0.0000 C   0  0  0  0  0  0  0  0  0  0  0  0
   -1.4289   -1.6500    0.0000 C   0  0  0  0  0  0  0  0  0  0  0  0
   -0.7145   -1.2375    0.0000 C   0  0  0  0  0  0  0  0  0  0  0  0
    0.0000   -1.6500    0.0000 C   0  0  0  0  0  0  0  0  0  0  0  0
    0.0000   -2.4750    0.0000 C   0  0  0  0  0  0  0  0  0  0  0  0
   -0.7145   -2.8875    0.0000 C   0  0  0  0  0  0  0  0  0  0  0  0
    0.7145   -1.2375    0.0000 C   0  0  0  0  0  0  0  0  0  0  0  0
    0.7145   -0.4125    0.0000 C   0  0  0  0  0  0  0  0  0  0  0  0
    1.4289    0.0000    0.0000 C   0  0  0  0  0  0  0  0  0  0  0  0
    1.4289    0.8250    0.0000 O   0  0  0  0  0  0  0  0  0  0  0  0
    2.1434   -0.4125    0.0000 C   0  0  0  0  0  0  0  0  0  0  0  0
    2.8579    0.0000    0.0000 C   0  0  0  0  0  0  0  0  0  0  0  0
    2.8579    0.8250    0.0000 O   0  0  0  0  0  0  0  0  0  0  0  0
    2.1434    1.2375    0.0000 C   0  0  0  0  0  0  0  0  0  0  0  0
    3.5724   -0.4125    0.0000 C   0  0  0  0  0  0  0  0  0  0  0  0
    3.5724   -1.2375    0.0000 C   0  0  0  0  0  0  0  0  0  0  0  0
    4.2868   -1.6500    0.0000 O   0  0  0  0  0  0  0  0  0  0  0  0
    4.2868   -2.4750    0.0000 C   0  0  0  0  0  0  0  0  0  0  0  0
    2.8579   -1.6500    0.0000 C   0  0  0  0  0  0  0  0  0  0  0  0
    2.1434   -1.2375    0.0000 C   0  0  0  0  0  0  0  0  0  0  0  0
    1.4289   -1.6500    0.0000 O   0  0  0  0  0  0  0  0  0  0  0  0
  1  2  1  0  0  0  0
  2  3  1  0  0  0  0
  3  4  2  0  0  0  0
  3  8  1  0  0  0  0
  4  5  1  0  0  0  0
  5  6  2  0  0  0  0
  6  7  1  0  0  0  0
  6  9  1  0  0  0  0
  7  8  2  0  0  0  0
  9 10  2  0  0  0  0
  9 23  1  0  0  0  0
 10 11  1  0  0  0  0
 11 12  2  0  0  0  0
 11 13  1  0  0  0  0
 13 14  2  0  0  0  0
 13 22  1  0  0  0  0
 14 15  1  0  0  0  0
 14 17  1  0  0  0  0
 15 16  1  0  0  0  0
 17 18  2  0  0  0  0
 18 19  1  0  0  0  0
 18 21  1  0  0  0  0
 19 20  1  0  0  0  0
 21 22  2  0  0  0  0
 22 23  1  0  0  0  0
M  END
$$$$

 OpenBabel12191814062D

 32 36  0  0  0  0  0  0  0  0999 V2000
   -2.8579    0.8250    0.0000 C   0  0  0  0  0  0  0  0  0  0  0  0
   -2.1434    1.2375    0.0000 O   0  0  0  0  0  0  0  0  0  0  0  0
   -1.4289    0.8250    0.0000 C   0  0  0  0  0  0  0  0  0  0  0  0
   -0.7145    1.2375    0.0000 C   0  0  0  0  0  0  0  0  0  0  0  0
    0.0000    0.8250    0.0000 C   0  0  0  0  0  0  0  0  0  0  0  0
    0.0000    0.0000    0.0000 C   0  0  0  0  0  0  0  0  0  0  0  0
   -0.7145   -0.4125    0.0000 C   0  0  0  0  0  0  0  0  0  0  0  0
   -1.4289   -0.0000    0.0000 C   0  0  0  0  0  0  0  0  0  0  0  0
    0.7145   -0.4125    0.0000 C   0  0  3  0  0  0  0  0  0  0  0  0
    1.4289    0.0000    0.0000 N   0  0  0  0  0  0  0  0  0  0  0  0
    2.1434   -0.4125    0.0000 C   0  0  0  0  0  0  0  0  0  0  0  0
    2.8579    0.0000    0.0000 C   0  0  0  0  0  0  0  0  0  0  0  0
    3.5724   -0.4125    0.0000 C   0  0  0  0  0  0  0  0  0  0  0  0
    3.5724   -1.2375    0.0000 C   0  0  0  0  0  0  0  0  0  0  0  0
    2.8579   -1.6500    0.0000 C   0  0  0  0  0  0  0  0  0  0  0  0
    2.1434   -1.2375    0.0000 C   0  0  0  0  0  0  0  0  0  0  0  0
    1.4289   -1.6500    0.0000 C   0  0  0  0  0  0  0  0  0  0  0  0
    1.4289   -2.4750    0.0000 O   0  0  0  0  0  0  0  0  0  0  0  0
    0.7145   -1.2375    0.0000 N   0  0  0  0  0  0  0  0  0  0  0  0
    0.0000   -1.6500    0.0000 C   0  0  0  0  0  0  0  0  0  0  0  0
    0.0000   -2.4750    0.0000 C   0  0  0  0  0  0  0  0  0  0  0  0
   -0.7145   -2.8875    0.0000 C   0  0  0  0  0  0  0  0  0  0  0  0
   -1.4289   -2.4750    0.0000 C   0  0  0  0  0  0  0  0  0  0  0  0
   -2.1434   -2.8875    0.0000 O   0  0  0  0  0  0  0  0  0  0  0  0
   -2.8579   -2.4750    0.0000 C   0  0  0  0  0  0  0  0  0  0  0  0
   -3.5724   -2.8875    0.0000 C   0  0  0  0  0  0  0  0  0  0  0  0
   -4.2868   -2.4750    0.0000 C   0  0  0  0  0  0  0  0  0  0  0  0
   -4.2868   -1.6500    0.0000 C   0  0  0  0  0  0  0  0  0  0  0  0
   -3.5724   -1.2375    0.0000 C   0  0  0  0  0  0  0  0  0  0  0  0
   -2.8579   -1.6500    0.0000 C   0  0  0  0  0  0  0  0  0  0  0  0
   -1.4289   -1.6500    0.0000 C   0  0  0  0  0  0  0  0  0  0  0  0
   -0.7145   -1.2375    0.0000 C   0  0  0  0  0  0  0  0  0  0  0  0
  1  2  1  0  0  0  0
  2  3  1  0  0  0  0
  3  4  2  0  0  0  0
  3  8  1  0  0  0  0
  4  5  1  0  0  0  0
  5  6  2  0  0  0  0
  6  7  1  0  0  0  0
  6  9  1  0  0  0  0
  7  8  2  0  0  0  0
  9 10  1  0  0  0  0
  9 19  1  0  0  0  0
 10 11  1  0  0  0  0
 11 12  2  0  0  0  0
 11 16  1  0  0  0  0
 12 13  1  0  0  0  0
 13 14  2  0  0  0  0
 14 15  1  0  0  0  0
 15 16  2  0  0  0  0
 16 17  1  0  0  0  0
 17 18  2  0  0  0  0
 17 19  1  0  0  0  0
 19 20  1  0  0  0  0
 20 21  2  0  0  0  0
 20 32  1  0  0  0  0
 21 22  1  0  0  0  0
 22 23  2  0  0  0  0
 23 24  1  0  0  0  0
 23 31  1  0  0  0  0
 24 25  1  0  0  0  0
 25 26  2  0  0  0  0
 25 30  1  0  0  0  0
 26 27  1  0  0  0  0
 27 28  2  0  0  0  0
 28 29  1  0  0  0  0
 29 30  2  0  0  0  0
 31 32  2  0  0  0  0
M  END
$$$$

 OpenBabel12191814062D

 29 31  0  0  0  0  0  0  0  0999 V2000
    4.9141   -1.5596    0.0000 C   0  0  0  0  0  0  0  0  0  0  0  0
    4.0984   -1.6826    0.0000 O   0  0  0  0  0  0  0  0  0  0  0  0
    3.5840   -1.0375    0.0000 C   0  0  0  0  0  0  0  0  0  0  0  0
    2.7682   -1.1605    0.0000 C   0  0  0  0  0  0  0  0  0  0  0  0
    2.2538   -0.5155    0.0000 C   0  0  0  0  0  0  0  0  0  0  0  0
    2.5552    0.2525    0.0000 C   0  0  0  0  0  0  0  0  0  0  0  0
    3.3710    0.3754    0.0000 C   0  0  0  0  0  0  0  0  0  0  0  0
    3.8854   -0.2696    0.0000 C   0  0  0  0  0  0  0  0  0  0  0  0
    2.0408    0.8975    0.0000 C   0  0  3  0  0  0  0  0  0  0  0  0
    1.2365    0.7139    0.0000 S   0  0  0  0  0  0  0  0  0  0  0  0
    0.5915    1.2283    0.0000 C   0  0  0  0  0  0  0  0  0  0  0  0
   -0.1230    0.8158    0.0000 C   0  0  0  0  0  0  0  0  0  0  0  0
   -0.8374    1.2283    0.0000 C   0  0  0  0  0  0  0  0  0  0  0  0
   -0.8374    2.0533    0.0000 C   0  0  0  0  0  0  0  0  0  0  0  0
   -0.1230    2.4658    0.0000 C   0  0  0  0  0  0  0  0  0  0  0  0
    0.5915    2.0533    0.0000 C   0  0  0  0  0  0  0  0  0  0  0  0
    1.2365    2.5677    0.0000 N   0  0  0  0  0  0  0  0  0  0  0  0
    1.0529    3.3720    0.0000 C   0  0  0  0  0  0  0  0  0  0  0  0
    0.2646    3.6152    0.0000 C   0  0  0  0  0  0  0  0  0  0  0  0
    0.0810    4.4195    0.0000 N   0  0  0  0  0  0  0  0  0  0  0  0
   -0.7073    4.6626    0.0000 C   0  0  0  0  0  0  0  0  0  0  0  0
    0.6858    4.9806    0.0000 C   0  0  0  0  0  0  0  0  0  0  0  0
    2.0408    2.3841    0.0000 C   0  0  0  0  0  0  0  0  0  0  0  0
    2.5552    3.0291    0.0000 O   0  0  0  0  0  0  0  0  0  0  0  0
    2.3988    1.6408    0.0000 C   0  0  3  0  0  0  0  0  0  0  0  0
    3.2238    1.6408    0.0000 O   0  0  0  0  0  0  0  0  0  0  0  0
    3.6363    2.3553    0.0000 C   0  0  0  0  0  0  0  0  0  0  0  0
    3.2238    3.0697    0.0000 C   0  0  0  0  0  0  0  0  0  0  0  0
    4.4613    2.3553    0.0000 O   0  0  0  0  0  0  0  0  0  0  0  0
  1  2  1  0  0  0  0
  2  3  1  0  0  0  0
  3  4  2  0  0  0  0
  3  8  1  0  0  0  0
  4  5  1  0  0  0  0
  5  6  2  0  0  0  0
  6  7  1  0  0  0  0
  6  9  1  0  0  0  0
  7  8  2  0  0  0  0
  9 10  1  0  0  0  0
  9 25  1  0  0  0  0
 10 11  1  0  0  0  0
 11 12  2  0  0  0  0
 11 16  1  0  0  0  0
 12 13  1  0  0  0  0
 13 14  2  0  0  0  0
 14 15  1  0  0  0  0
 15 16  2  0  0  0  0
 16 17  1  0  0  0  0
 17 18  1  0  0  0  0
 17 23  1  0  0  0  0
 18 19  1  0  0  0  0
 19 20  1  0  0  0  0
 20 21  1  0  0  0  0
 20 22  1  0  0  0  0
 23 24  2  0  0  0  0
 23 25  1  0  0  0  0
 25 26  1  0  0  0  0
 26 27  1  0  0  0  0
 27 28  1  0  0  0  0
 27 29  2  0  0  0  0
M  END
$$$$

 OpenBabel12191814062D

 35 38  0  0  0  0  0  0  0  0999 V2000
    2.8579   -4.9500    0.0000 C   0  0  0  0  0  0  0  0  0  0  0  0
    3.5724   -5.3625    0.0000 O   0  0  0  0  0  0  0  0  0  0  0  0
    3.5724   -6.1875    0.0000 C   0  0  0  0  0  0  0  0  0  0  0  0
    4.2868   -6.6000    0.0000 C   0  0  0  0  0  0  0  0  0  0  0  0
    4.2868   -7.4250    0.0000 C   0  0  0  0  0  0  0  0  0  0  0  0
    3.5724   -7.8375    0.0000 C   0  0  0  0  0  0  0  0  0  0  0  0
    2.8579   -7.4250    0.0000 C   0  0  0  0  0  0  0  0  0  0  0  0
    2.8579   -6.6000    0.0000 C   0  0  0  0  0  0  0  0  0  0  0  0
    3.5724   -8.6625    0.0000 N   0  0  0  0  0  0  0  0  0  0  0  0
    4.2868   -9.0750    0.0000 C   0  0  0  0  0  0  0  0  0  0  0  0
    4.2868   -9.9000    0.0000 C   0  0  0  0  0  0  0  0  0  0  0  0
    3.5724  -10.3125    0.0000 N   0  0  0  0  0  0  0  0  0  0  0  0
    3.5724  -11.1375    0.0000 C   0  0  0  0  0  0  0  0  0  0  0  0
    2.8579  -11.5500    0.0000 C   0  0  3  0  0  0  0  0  0  0  0  0
    2.1434  -11.1375    0.0000 O   0  0  0  0  0  0  0  0  0  0  0  0
    2.8579  -12.3750    0.0000 C   0  0  0  0  0  0  0  0  0  0  0  0
    2.1434  -12.7875    0.0000 O   0  0  0  0  0  0  0  0  0  0  0  0
    2.1434  -13.6125    0.0000 C   0  0  0  0  0  0  0  0  0  0  0  0
    2.8579  -14.0250    0.0000 C   0  0  0  0  0  0  0  0  0  0  0  0
    2.8579  -14.8500    0.0000 C   0  0  0  0  0  0  0  0  0  0  0  0
    2.1434  -15.2625    0.0000 C   0  0  0  0  0  0  0  0  0  0  0  0
    1.4289  -14.8500    0.0000 C   0  0  0  0  0  0  0  0  0  0  0  0
    1.4289  -14.0250    0.0000 C   0  0  0  0  0  0  0  0  0  0  0  0
    0.7145  -13.6125    0.0000 C   0  0  0  0  0  0  0  0  0  0  0  0
   -0.0000  -14.0250    0.0000 O   0  0  0  0  0  0  0  0  0  0  0  0
    0.7145  -12.7875    0.0000 C   0  0  0  0  0  0  0  0  0  0  0  0
   -0.0000  -12.3750    0.0000 C   0  0  0  0  0  0  0  0  0  0  0  0
   -0.7145  -12.7875    0.0000 C   0  0  0  0  0  0  0  0  0  0  0  0
   -0.7145  -13.6125    0.0000 C   0  0  0  0  0  0  0  0  0  0  0  0
   -1.4289  -14.0250    0.0000 C   0  0  0  0  0  0  0  0  0  0  0  0
   -2.1434  -13.6125    0.0000 C   0  0  0  0  0  0  0  0  0  0  0  0
   -2.1434  -12.7875    0.0000 C   0  0  0  0  0  0  0  0  0  0  0  0
   -1.4289  -12.3750    0.0000 C   0  0  0  0  0  0  0  0  0  0  0  0
    2.8579   -9.9000    0.0000 C   0  0  0  0  0  0  0  0  0  0  0  0
    2.8579   -9.0750    0.0000 C   0  0  0  0  0  0  0  0  0  0  0  0
  1  2  1  0  0  0  0
  2  3  1  0  0  0  0
  3  4  2  0  0  0  0
  3  8  1  0  0  0  0
  4  5  1  0  0  0  0
  5  6  2  0  0  0  0
  6  7  1  0  0  0  0
  6  9  1  0  0  0  0
  7  8  2  0  0  0  0
  9 10  1  0  0  0  0
  9 35  1  0  0  0  0
 10 11  1  0  0  0  0
 11 12  1  0  0  0  0
 12 13  1  0  0  0  0
 12 34  1  0  0  0  0
 13 14  1  0  0  0  0
 14 15  1  0  0  0  0
 14 16  1  0  0  0  0
 16 17  1  0  0  0  0
 17 18  1  0  0  0  0
 18 19  2  0  0  0  0
 18 23  1  0  0  0  0
 19 20  1  0  0  0  0
 20 21  2  0  0  0  0
 21 22  1  0  0  0  0
 22 23  2  0  0  0  0
 23 24  1  0  0  0  0
 24 25  2  0  0  0  0
 24 26  1  0  0  0  0
 26 27  1  0  0  0  0
 27 28  1  0  0  0  0
 28 29  2  0  0  0  0
 28 33  1  0  0  0  0
 29 30  1  0  0  0  0
 30 31  2  0  0  0  0
 31 32  1  0  0  0  0
 32 33  2  0  0  0  0
 34 35  1  0  0  0  0
M  END
$$$$

 OpenBabel12191814062D

 28 30  0  0  0  0  0  0  0  0999 V2000
    3.5724    1.2375    0.0000 C   0  0  0  0  0  0  0  0  0  0  0  0
    4.2868    0.8250    0.0000 O   0  0  0  0  0  0  0  0  0  0  0  0
    4.2868   -0.0000    0.0000 C   0  0  0  0  0  0  0  0  0  0  0  0
    5.0013   -0.4125    0.0000 C   0  0  0  0  0  0  0  0  0  0  0  0
    5.0013   -1.2375    0.0000 C   0  0  0  0  0  0  0  0  0  0  0  0
    4.2868   -1.6500    0.0000 C   0  0  0  0  0  0  0  0  0  0  0  0
    3.5724   -1.2375    0.0000 C   0  0  0  0  0  0  0  0  0  0  0  0
    3.5724   -0.4125    0.0000 C   0  0  0  0  0  0  0  0  0  0  0  0
    2.8579   -0.0000    0.0000 C   0  0  0  0  0  0  0  0  0  0  0  0
    2.8579    0.8250    0.0000 N   0  0  0  0  0  0  0  0  0  0  0  0
    2.1434    1.2375    0.0000 C   0  0  3  0  0  0  0  0  0  0  0  0
    1.4289    0.8250    0.0000 C   0  0  0  0  0  0  0  0  0  0  0  0
    0.7145    1.2375    0.0000 C   0  0  0  0  0  0  0  0  0  0  0  0
    0.7145    2.0625    0.0000 C   0  0  0  0  0  0  0  0  0  0  0  0
    1.4289    2.4750    0.0000 N   0  0  0  0  0  0  0  0  0  0  0  0
    2.1434    2.0625    0.0000 C   0  0  3  0  0  0  0  0  0  0  0  0
    2.8579    2.4750    0.0000 C   0  0  0  0  0  0  0  0  0  0  0  0
    2.8579    3.3000    0.0000 C   0  0  0  0  0  0  0  0  0  0  0  0
    3.5724    3.7125    0.0000 C   0  0  0  0  0  0  0  0  0  0  0  0
    4.2868    3.3000    0.0000 C   0  0  0  0  0  0  0  0  0  0  0  0
    4.2868    2.4750    0.0000 C   0  0  0  0  0  0  0  0  0  0  0  0
    3.5724    2.0625    0.0000 C   0  0  0  0  0  0  0  0  0  0  0  0
    4.2868   -2.4750    0.0000 N   0  0  0  0  0  0  0  0  0  0  0  0
    3.5724   -2.8875    0.0000 C   0  0  0  0  0  0  0  0  0  0  0  0
    5.0013   -2.8875    0.0000 S   0  0  0  0  0  0  0  0  0  0  0  0
    5.7158   -3.3000    0.0000 C   0  0  0  0  0  0  0  0  0  0  0  0
    4.5888   -3.6020    0.0000 O   0  0  0  0  0  0  0  0  0  0  0  0
    5.4138   -2.1730    0.0000 O   0  0  0  0  0  0  0  0  0  0  0  0
  1  2  1  0  0  0  0
  2  3  1  0  0  0  0
  3  4  2  0  0  0  0
  3  8  1  0  0  0  0
  4  5  1  0  0  0  0
  5  6  2  0  0  0  0
  6  7  1  0  0  0  0
  6 23  1  0  0  0  0
  7  8  2  0  0  0  0
  8  9  1  0  0  0  0
  9 10  1  0  0  0  0
 10 11  1  0  0  0  0
 11 12  1  0  0  0  0
 11 16  1  0  0  0  0
 12 13  1  0  0  0  0
 13 14  1  0  0  0  0
 14 15  1  0  0  0  0
 15 16  1  0  0  0  0
 16 17  1  0  0  0  0
 17 18  2  0  0  0  0
 17 22  1  0  0  0  0
 18 19  1  0  0  0  0
 19 20  2  0  0  0  0
 20 21  1  0  0  0  0
 21 22  2  0  0  0  0
 23 24  1  0  0  0  0
 23 25  1  0  0  0  0
 25 26  1  0  0  0  0
 25 27  2  0  0  0  0
 25 28  2  0  0  0  0
M  END
$$$$

 OpenBabel12191814062D

 44 48  0  0  0  0  0  0  0  0999 V2000
   -2.1434   -3.7125    0.0000 C   0  0  0  0  0  0  0  0  0  0  0  0
   -2.1434   -2.8875    0.0000 O   0  0  0  0  0  0  0  0  0  0  0  0
   -1.4289   -2.4750    0.0000 C   0  0  0  0  0  0  0  0  0  0  0  0
   -1.4289   -1.6500    0.0000 C   0  0  0  0  0  0  0  0  0  0  0  0
   -0.7145   -1.2375    0.0000 C   0  0  0  0  0  0  0  0  0  0  0  0
    0.0000   -1.6500    0.0000 C   0  0  0  0  0  0  0  0  0  0  0  0
    0.0000   -2.4750    0.0000 C   0  0  0  0  0  0  0  0  0  0  0  0
   -0.7145   -2.8875    0.0000 C   0  0  0  0  0  0  0  0  0  0  0  0
   -0.7145   -3.7125    0.0000 O   0  0  0  0  0  0  0  0  0  0  0  0
    0.7145   -1.2375    0.0000 C   0  0  0  0  0  0  0  0  0  0  0  0
    0.7145   -0.4125    0.0000 C   0  0  0  0  0  0  0  0  0  0  0  0
    1.4289    0.0000    0.0000 C   0  0  0  0  0  0  0  0  0  0  0  0
    1.4289    0.8250    0.0000 O   0  0  0  0  0  0  0  0  0  0  0  0
    2.1434   -0.4125    0.0000 C   0  0  0  0  0  0  0  0  0  0  0  0
    2.8579    0.0000    0.0000 C   0  0  0  0  0  0  0  0  0  0  0  0
    2.8579    0.8250    0.0000 O   0  0  0  0  0  0  0  0  0  0  0  0
    3.5724   -0.4125    0.0000 C   0  0  0  0  0  0  0  0  0  0  0  0
    3.5724   -1.2375    0.0000 C   0  0  0  0  0  0  0  0  0  0  0  0
    4.2868   -1.6500    0.0000 O   0  0  0  0  0  0  0  0  0  0  0  0
    4.2868   -2.4750    0.0000 C   0  0  0  0  0  0  0  0  0  0  0  0
    5.0013   -2.8875    0.0000 C   0  0  0  0  0  0  0  0  0  0  0  0
    5.7158   -2.4750    0.0000 O   0  0  0  0  0  0  0  0  0  0  0  0
    5.0013   -3.7125    0.0000 N   0  0  0  0  0  0  0  0  0  0  0  0
    5.7158   -4.1250    0.0000 C   0  0  0  0  0  0  0  0  0  0  0  0
    5.7158   -4.9500    0.0000 C   0  0  0  0  0  0  0  0  0  0  0  0
    5.0013   -5.3625    0.0000 N   0  0  0  0  0  0  0  0  0  0  0  0
    5.0013   -6.1875    0.0000 C   0  0  0  0  0  0  0  0  0  0  0  0
    5.7158   -6.6000    0.0000 C   0  0  0  0  0  0  0  0  0  0  0  0
    6.4302   -6.1875    0.0000 C   0  0  0  0  0  0  0  0  0  0  0  0
    7.1447   -6.6000    0.0000 C   0  0  0  0  0  0  0  0  0  0  0  0
    7.1447   -7.4250    0.0000 C   0  0  0  0  0  0  0  0  0  0  0  0
    7.8592   -7.8375    0.0000 O   0  0  0  0  0  0  0  0  0  0  0  0
    8.5737   -7.4250    0.0000 C   0  0  0  0  0  0  0  0  0  0  0  0
    6.4302   -7.8375    0.0000 C   0  0  0  0  0  0  0  0  0  0  0  0
    6.4302   -8.6625    0.0000 O   0  0  0  0  0  0  0  0  0  0  0  0
    5.7158   -9.0750    0.0000 C   0  0  0  0  0  0  0  0  0  0  0  0
    5.7158   -7.4250    0.0000 C   0  0  0  0  0  0  0  0  0  0  0  0
    5.0013   -7.8375    0.0000 O   0  0  0  0  0  0  0  0  0  0  0  0
    4.2868   -7.4250    0.0000 C   0  0  0  0  0  0  0  0  0  0  0  0
    4.2868   -4.9500    0.0000 C   0  0  0  0  0  0  0  0  0  0  0  0
    4.2868   -4.1250    0.0000 C   0  0  0  0  0  0  0  0  0  0  0  0
    2.8579   -1.6500    0.0000 C   0  0  0  0  0  0  0  0  0  0  0  0
    2.1434   -1.2375    0.0000 C   0  0  0  0  0  0  0  0  0  0  0  0
    1.4289   -1.6500    0.0000 O   0  0  0  0  0  0  0  0  0  0  0  0
  1  2  1  0  0  0  0
  2  3  1  0  0  0  0
  3  4  2  0  0  0  0
  3  8  1  0  0  0  0
  4  5  1  0  0  0  0
  5  6  2  0  0  0  0
  6  7  1  0  0  0  0
  6 10  1  0  0  0  0
  7  8  2  0  0  0  0
  8  9  1  0  0  0  0
 10 11  2  0  0  0  0
 10 44  1  0  0  0  0
 11 12  1  0  0  0  0
 12 13  2  0  0  0  0
 12 14  1  0  0  0  0
 14 15  2  0  0  0  0
 14 43  1  0  0  0  0
 15 16  1  0  0  0  0
 15 17  1  0  0  0  0
 17 18  2  0  0  0  0
 18 19  1  0  0  0  0
 18 42  1  0  0  0  0
 19 20  1  0  0  0  0
 20 21  1  0  0  0  0
 21 22  2  0  0  0  0
 21 23  1  0  0  0  0
 23 24  1  0  0  0  0
 23 41  1  0  0  0  0
 24 25  1  0  0  0  0
 25 26  1  0  0  0  0
 26 27  1  0  0  0  0
 26 40  1  0  0  0  0
 27 28  1  0  0  0  0
 28 29  2  0  0  0  0
 28 37  1  0  0  0  0
 29 30  1  0  0  0  0
 30 31  2  0  0  0  0
 31 32  1  0  0  0  0
 31 34  1  0  0  0  0
 32 33  1  0  0  0  0
 34 35  1  0  0  0  0
 34 37  2  0  0  0  0
 35 36  1  0  0  0  0
 37 38  1  0  0  0  0
 38 39  1  0  0  0  0
 40 41  1  0  0  0  0
 42 43  2  0  0  0  0
 43 44  1  0  0  0  0
M  END
$$$$

 OpenBabel12191814062D

 56 60  0  0  0  0  0  0  0  0999 V2000
   -2.8579   -2.4750    0.0000 C   0  0  0  0  0  0  0  0  0  0  0  0
   -2.1434   -2.8875    0.0000 O   0  0  0  0  0  0  0  0  0  0  0  0
   -1.4289   -2.4750    0.0000 C   0  0  0  0  0  0  0  0  0  0  0  0
   -1.4289   -1.6500    0.0000 C   0  0  0  0  0  0  0  0  0  0  0  0
   -0.7145   -1.2375    0.0000 C   0  0  0  0  0  0  0  0  0  0  0  0
    0.0000   -1.6500    0.0000 C   0  0  0  0  0  0  0  0  0  0  0  0
    0.0000   -2.4750    0.0000 C   0  0  0  0  0  0  0  0  0  0  0  0
   -0.7145   -2.8875    0.0000 C   0  0  0  0  0  0  0  0  0  0  0  0
   -0.7145   -3.7125    0.0000 O   0  0  0  0  0  0  0  0  0  0  0  0
   -1.4289   -4.1250    0.0000 C   0  0  0  0  0  0  0  0  0  0  0  0
   -2.1434   -3.7125    0.0000 O   0  0  0  0  0  0  0  0  0  0  0  0
   -1.4289   -4.9500    0.0000 C   0  0  0  0  0  0  0  0  0  0  0  0
   -1.4289   -5.7750    0.0000 C   0  0  0  0  0  0  0  0  0  0  0  0
   -0.6039   -4.9500    0.0000 C   0  0  0  0  0  0  0  0  0  0  0  0
   -2.2539   -4.9500    0.0000 C   0  0  0  0  0  0  0  0  0  0  0  0
    0.7145   -1.2375    0.0000 C   0  0  3  0  0  0  0  0  0  0  0  0
    0.7145   -0.4125    0.0000 C   0  0  0  0  0  0  0  0  0  0  0  0
    1.4289    0.0000    0.0000 C   0  0  0  0  0  0  0  0  0  0  0  0
    1.4289    0.8250    0.0000 O   0  0  0  0  0  0  0  0  0  0  0  0
    2.1434   -0.4125    0.0000 C   0  0  0  0  0  0  0  0  0  0  0  0
    2.8579    0.0000    0.0000 C   0  0  0  0  0  0  0  0  0  0  0  0
    2.8579    0.8250    0.0000 O   0  0  0  0  0  0  0  0  0  0  0  0
    3.5724    1.2375    0.0000 C   0  0  0  0  0  0  0  0  0  0  0  0
    3.5724    2.0625    0.0000 O   0  0  0  0  0  0  0  0  0  0  0  0
    4.2868    0.8250    0.0000 C   0  0  0  0  0  0  0  0  0  0  0  0
    3.8743    0.1105    0.0000 C   0  0  0  0  0  0  0  0  0  0  0  0
    4.6993    1.5395    0.0000 C   0  0  0  0  0  0  0  0  0  0  0  0
    5.0013    0.4125    0.0000 C   0  0  0  0  0  0  0  0  0  0  0  0
    3.5724   -0.4125    0.0000 C   0  0  0  0  0  0  0  0  0  0  0  0
    3.5724   -1.2375    0.0000 C   0  0  0  0  0  0  0  0  0  0  0  0
    4.2868   -1.6500    0.0000 O   0  0  0  0  0  0  0  0  0  0  0  0
    4.2868   -2.4750    0.0000 C   0  0  0  0  0  0  0  0  0  0  0  0
    5.0013   -2.8875    0.0000 C   0  0  0  0  0  0  0  0  0  0  0  0
    5.7158   -2.4750    0.0000 O   0  0  0  0  0  0  0  0  0  0  0  0
    5.0013   -3.7125    0.0000 N   0  0  0  0  0  0  0  0  0  0  0  0
    5.7158   -4.1250    0.0000 C   0  0  0  0  0  0  0  0  0  0  0  0
    5.7158   -4.9500    0.0000 C   0  0  0  0  0  0  0  0  0  0  0  0
    5.0013   -5.3625    0.0000 N   0  0  0  0  0  0  0  0  0  0  0  0
    5.0013   -6.1875    0.0000 C   0  0  0  0  0  0  0  0  0  0  0  0
    5.7158   -6.6000    0.0000 C   0  0  0  0  0  0  0  0  0  0  0  0
    6.4302   -6.1875    0.0000 C   0  0  0  0  0  0  0  0  0  0  0  0
    7.1447   -6.6000    0.0000 C   0  0  0  0  0  0  0  0  0  0  0  0
    7.1447   -7.4250    0.0000 C   0  0  0  0  0  0  0  0  0  0  0  0
    7.8592   -7.8375    0.0000 O   0  0  0  0  0  0  0  0  0  0  0  0
    8.5737   -7.4250    0.0000 C   0  0  0  0  0  0  0  0  0  0  0  0
    6.4302   -7.8375    0.0000 C   0  0  0  0  0  0  0  0  0  0  0  0
    6.4302   -8.6625    0.0000 O   0  0  0  0  0  0  0  0  0  0  0  0
    5.7158   -9.0750    0.0000 C   0  0  0  0  0  0  0  0  0  0  0  0
    5.7158   -7.4250    0.0000 C   0  0  0  0  0  0  0  0  0  0  0  0
    5.0013   -7.8375    0.0000 O   0  0  0  0  0  0  0  0  0  0  0  0
    4.2868   -7.4250    0.0000 C   0  0  0  0  0  0  0  0  0  0  0  0
    4.2868   -4.9500    0.0000 C   0  0  0  0  0  0  0  0  0  0  0  0
    4.2868   -4.1250    0.0000 C   0  0  0  0  0  0  0  0  0  0  0  0
    2.8579   -1.6500    0.0000 C   0  0  0  0  0  0  0  0  0  0  0  0
    2.1434   -1.2375    0.0000 C   0  0  0  0  0  0  0  0  0  0  0  0
    1.4289   -1.6500    0.0000 O   0  0  0  0  0  0  0  0  0  0  0  0
  1  2  1  0  0  0  0
  2  3  1  0  0  0  0
  3  4  2  0  0  0  0
  3  8  1  0  0  0  0
  4  5  1  0  0  0  0
  5  6  2  0  0  0  0
  6  7  1  0  0  0  0
  6 16  1  0  0  0  0
  7  8  2  0  0  0  0
  8  9  1  0  0  0  0
  9 10  1  0  0  0  0
 10 11  2  0  0  0  0
 10 12  1  0  0  0  0
 12 13  1  0  0  0  0
 12 14  1  0  0  0  0
 12 15  1  0  0  0  0
 16 17  1  0  0  0  0
 16 56  1  0  0  0  0
 17 18  1  0  0  0  0
 18 19  2  0  0  0  0
 18 20  1  0  0  0  0
 20 21  2  0  0  0  0
 20 55  1  0  0  0  0
 21 22  1  0  0  0  0
 21 29  1  0  0  0  0
 22 23  1  0  0  0  0
 23 24  2  0  0  0  0
 23 25  1  0  0  0  0
 25 26  1  0  0  0  0
 25 27  1  0  0  0  0
 25 28  1  0  0  0  0
 29 30  2  0  0  0  0
 30 31  1  0  0  0  0
 30 54  1  0  0  0  0
 31 32  1  0  0  0  0
 32 33  1  0  0  0  0
 33 34  2  0  0  0  0
 33 35  1  0  0  0  0
 35 36  1  0  0  0  0
 35 53  1  0  0  0  0
 36 37  1  0  0  0  0
 37 38  1  0  0  0  0
 38 39  1  0  0  0  0
 38 52  1  0  0  0  0
 39 40  1  0  0  0  0
 40 41  2  0  0  0  0
 40 49  1  0  0  0  0
 41 42  1  0  0  0  0
 42 43  2  0  0  0  0
 43 44  1  0  0  0  0
 43 46  1  0  0  0  0
 44 45  1  0  0  0  0
 46 47  1  0  0  0  0
 46 49  2  0  0  0  0
 47 48  1  0  0  0  0
 49 50  1  0  0  0  0
 50 51  1  0  0  0  0
 52 53  1  0  0  0  0
 54 55  2  0  0  0  0
 55 56  1  0  0  0  0
M  END
$$$$

 OpenBabel12191814062D

 35 38  0  0  0  0  0  0  0  0999 V2000
   -5.7158   -7.4250    0.0000 C   0  0  0  0  0  0  0  0  0  0  0  0
   -5.7158   -6.6000    0.0000 O   0  0  0  0  0  0  0  0  0  0  0  0
   -5.0013   -6.1875    0.0000 C   0  0  0  0  0  0  0  0  0  0  0  0
   -5.0013   -5.3625    0.0000 C   0  0  0  0  0  0  0  0  0  0  0  0
   -4.2868   -4.9500    0.0000 C   0  0  0  0  0  0  0  0  0  0  0  0
   -3.5724   -5.3625    0.0000 C   0  0  0  0  0  0  0  0  0  0  0  0
   -3.5724   -6.1875    0.0000 C   0  0  0  0  0  0  0  0  0  0  0  0
   -4.2868   -6.6000    0.0000 C   0  0  0  0  0  0  0  0  0  0  0  0
   -4.2868   -7.4250    0.0000 O   0  0  0  0  0  0  0  0  0  0  0  0
   -5.0013   -7.8375    0.0000 C   0  0  0  0  0  0  0  0  0  0  0  0
   -2.8579   -4.9500    0.0000 C   0  0  0  0  0  0  0  0  0  0  0  0
   -2.1434   -5.3625    0.0000 O   0  0  0  0  0  0  0  0  0  0  0  0
   -2.8579   -4.1250    0.0000 N   0  0  0  0  0  0  0  0  0  0  0  0
   -2.1434   -3.7125    0.0000 C   0  0  0  0  0  0  0  0  0  0  0  0
   -2.1434   -2.8875    0.0000 C   0  0  0  0  0  0  0  0  0  0  0  0
   -1.4289   -2.4750    0.0000 C   0  0  0  0  0  0  0  0  0  0  0  0
   -0.7145   -2.8875    0.0000 C   0  0  0  0  0  0  0  0  0  0  0  0
    0.0000   -2.4750    0.0000 C   0  0  0  0  0  0  0  0  0  0  0  0
    0.0000   -1.6500    0.0000 C   0  0  0  0  0  0  0  0  0  0  0  0
    0.7145   -1.2375    0.0000 N   0  0  0  0  0  0  0  0  0  0  0  0
    0.7145   -0.4125    0.0000 C   0  0  0  0  0  0  0  0  0  0  0  0
    1.4289    0.0000    0.0000 C   0  0  0  0  0  0  0  0  0  0  0  0
    2.1434   -0.4125    0.0000 C   0  0  0  0  0  0  0  0  0  0  0  0
    2.8579    0.0000    0.0000 C   0  0  0  0  0  0  0  0  0  0  0  0
    3.5724   -0.4125    0.0000 C   0  0  0  0  0  0  0  0  0  0  0  0
    4.2868   -0.0000    0.0000 O   0  0  0  0  0  0  0  0  0  0  0  0
    4.2868    0.8250    0.0000 C   0  0  0  0  0  0  0  0  0  0  0  0
    3.5724   -1.2375    0.0000 C   0  0  0  0  0  0  0  0  0  0  0  0
    4.2868   -1.6500    0.0000 O   0  0  0  0  0  0  0  0  0  0  0  0
    4.2868   -2.4750    0.0000 C   0  0  0  0  0  0  0  0  0  0  0  0
    2.8579   -1.6500    0.0000 C   0  0  0  0  0  0  0  0  0  0  0  0
    2.1434   -1.2375    0.0000 C   0  0  0  0  0  0  0  0  0  0  0  0
    1.4289   -1.6500    0.0000 C   0  0  0  0  0  0  0  0  0  0  0  0
   -0.7145   -3.7125    0.0000 C   0  0  0  0  0  0  0  0  0  0  0  0
   -1.4289   -4.1250    0.0000 C   0  0  0  0  0  0  0  0  0  0  0  0
  1  2  1  0  0  0  0
  2  3  1  0  0  0  0
  3  4  2  0  0  0  0
  3  8  1  0  0  0  0
  4  5  1  0  0  0  0
  5  6  2  0  0  0  0
  6  7  1  0  0  0  0
  6 11  1  0  0  0  0
  7  8  2  0  0  0  0
  8  9  1  0  0  0  0
  9 10  1  0  0  0  0
 11 12  2  0  0  0  0
 11 13  1  0  0  0  0
 13 14  1  0  0  0  0
 14 15  2  0  0  0  0
 14 35  1  0  0  0  0
 15 16  1  0  0  0  0
 16 17  2  0  0  0  0
 17 18  1  0  0  0  0
 17 34  1  0  0  0  0
 18 19  1  0  0  0  0
 19 20  1  0  0  0  0
 20 21  1  0  0  0  0
 20 33  1  0  0  0  0
 21 22  1  0  0  0  0
 22 23  1  0  0  0  0
 23 24  2  0  0  0  0
 23 32  1  0  0  0  0
 24 25  1  0  0  0  0
 25 26  1  0  0  0  0
 25 28  2  0  0  0  0
 26 27  1  0  0  0  0
 28 29  1  0  0  0  0
 28 31  1  0  0  0  0
 29 30  1  0  0  0  0
 31 32  2  0  0  0  0
 32 33  1  0  0  0  0
 34 35  2  0  0  0  0
M  END
$$$$

 OpenBabel12191814062D

 41 43  0  0  0  0  0  0  0  0999 V2000
    2.8579   -5.7750    0.0000 C   0  0  0  0  0  0  0  0  0  0  0  0
    3.5724   -6.1875    0.0000 O   0  0  0  0  0  0  0  0  0  0  0  0
    3.5724   -7.0125    0.0000 C   0  0  0  0  0  0  0  0  0  0  0  0
    4.2868   -7.4250    0.0000 C   0  0  0  0  0  0  0  0  0  0  0  0
    4.2868   -8.2500    0.0000 C   0  0  0  0  0  0  0  0  0  0  0  0
    3.5724   -8.6625    0.0000 C   0  0  0  0  0  0  0  0  0  0  0  0
    2.8579   -8.2500    0.0000 C   0  0  0  0  0  0  0  0  0  0  0  0
    2.8579   -7.4250    0.0000 C   0  0  0  0  0  0  0  0  0  0  0  0
    2.1434   -7.0125    0.0000 O   0  0  0  0  0  0  0  0  0  0  0  0
    2.1434   -6.1875    0.0000 C   0  0  0  0  0  0  0  0  0  0  0  0
    3.5724   -9.4875    0.0000 C   0  0  3  0  0  0  0  0  0  0  0  0
    3.5724  -10.3125    0.0000 C   0  0  0  0  0  0  0  0  0  0  0  0
    2.8579  -10.7250    0.0000 C   0  0  0  0  0  0  0  0  0  0  0  0
    2.1434  -11.1375    0.0000 C   0  0  0  0  0  0  0  0  0  0  0  0
    1.4289  -11.5500    0.0000 C   0  0  0  0  0  0  0  0  0  0  0  0
    1.4289  -12.3750    0.0000 N   0  0  0  0  0  0  0  0  0  0  0  0
    0.7145  -12.7875    0.0000 C   0  0  0  0  0  0  0  0  0  0  0  0
    0.7145  -13.6125    0.0000 C   0  0  0  0  0  0  0  0  0  0  0  0
    0.0000  -14.0250    0.0000 C   0  0  0  0  0  0  0  0  0  0  0  0
   -0.7145  -13.6125    0.0000 N   0  0  0  0  0  0  0  0  0  0  0  0
   -0.7145  -12.7875    0.0000 C   0  0  0  0  0  0  0  0  0  0  0  0
    0.0000  -12.3750    0.0000 C   0  0  0  0  0  0  0  0  0  0  0  0
   -1.4289  -14.0250    0.0000 C   0  0  0  0  0  0  0  0  0  0  0  0
   -1.4289  -14.8500    0.0000 N   0  0  0  0  0  0  0  0  0  0  0  0
   -2.1434  -15.2625    0.0000 C   0  0  0  0  0  0  0  0  0  0  0  0
   -2.1434  -16.0875    0.0000 N   0  0  0  0  0  0  0  0  0  0  0  0
   -1.4289  -16.5000    0.0000 C   0  0  0  0  0  0  0  0  0  0  0  0
   -1.4289  -17.3250    0.0000 C   0  0  0  0  0  0  0  0  0  0  0  0
   -2.1434  -17.7375    0.0000 C   0  0  0  0  0  0  0  0  0  0  0  0
   -2.8579  -14.8500    0.0000 N   0  0  0  0  0  0  0  0  0  0  0  0
   -2.8579  -14.0250    0.0000 C   0  0  0  0  0  0  0  0  0  0  0  0
   -3.5724  -13.6125    0.0000 N   0  0  0  0  0  0  0  0  0  0  0  0
   -3.5724  -12.7875    0.0000 C   0  0  0  0  0  0  0  0  0  0  0  0
   -4.2868  -12.3750    0.0000 C   0  0  0  0  0  0  0  0  0  0  0  0
   -4.2868  -11.5500    0.0000 C   0  0  0  0  0  0  0  0  0  0  0  0
   -2.1434  -13.6125    0.0000 N   0  0  0  0  0  0  0  0  0  0  0  0
    2.7474   -9.4875    0.0000 C   0  0  0  0  0  0  0  0  0  0  0  0
    1.9224   -9.4875    0.0000 N   0  0  0  0  0  0  0  0  0  0  0  0
    4.3974   -9.4875    0.0000 C   0  0  0  0  0  0  0  0  0  0  0  0
    4.8099  -10.2020    0.0000 C   0  0  0  0  0  0  0  0  0  0  0  0
    4.8099   -8.7730    0.0000 C   0  0  0  0  0  0  0  0  0  0  0  0
  1  2  1  0  0  0  0
  2  3  1  0  0  0  0
  3  4  2  0  0  0  0
  3  8  1  0  0  0  0
  4  5  1  0  0  0  0
  5  6  2  0  0  0  0
  6  7  1  0  0  0  0
  6 11  1  0  0  0  0
  7  8  2  0  0  0  0
  8  9  1  0  0  0  0
  9 10  1  0  0  0  0
 11 12  1  0  0  0  0
 11 37  1  0  0  0  0
 11 39  1  0  0  0  0
 12 13  1  0  0  0  0
 13 14  3  0  0  0  0
 14 15  1  0  0  0  0
 15 16  1  0  0  0  0
 16 17  1  0  0  0  0
 17 18  1  0  0  0  0
 17 22  1  0  0  0  0
 18 19  1  0  0  0  0
 19 20  1  0  0  0  0
 20 21  1  0  0  0  0
 20 23  1  0  0  0  0
 21 22  1  0  0  0  0
 23 24  2  0  0  0  0
 23 36  1  0  0  0  0
 24 25  1  0  0  0  0
 25 26  1  0  0  0  0
 25 30  2  0  0  0  0
 26 27  1  0  0  0  0
 27 28  1  0  0  0  0
 28 29  2  0  0  0  0
 30 31  1  0  0  0  0
 31 32  1  0  0  0  0
 31 36  2  0  0  0  0
 32 33  1  0  0  0  0
 33 34  1  0  0  0  0
 34 35  2  0  0  0  0
 37 38  3  0  0  0  0
 39 40  1  0  0  0  0
 39 41  1  0  0  0  0
M  END
$$$$

 OpenBabel12191814062D

 35 37  0  0  0  0  0  0  0  0999 V2000
   -7.1447   -3.3000    0.0000 C   0  0  0  0  0  0  0  0  0  0  0  0
   -7.1447   -2.4750    0.0000 O   0  0  0  0  0  0  0  0  0  0  0  0
   -6.4302   -2.0625    0.0000 C   0  0  0  0  0  0  0  0  0  0  0  0
   -6.4302   -1.2375    0.0000 C   0  0  0  0  0  0  0  0  0  0  0  0
   -5.7158   -0.8250    0.0000 C   0  0  0  0  0  0  0  0  0  0  0  0
   -5.0013   -1.2375    0.0000 C   0  0  0  0  0  0  0  0  0  0  0  0
   -5.0013   -2.0625    0.0000 C   0  0  0  0  0  0  0  0  0  0  0  0
   -5.7158   -2.4750    0.0000 C   0  0  0  0  0  0  0  0  0  0  0  0
   -5.7158   -3.3000    0.0000 O   0  0  0  0  0  0  0  0  0  0  0  0
   -6.4302   -3.7125    0.0000 C   0  0  0  0  0  0  0  0  0  0  0  0
   -4.2868   -0.8250    0.0000 C   0  0  3  0  0  0  0  0  0  0  0  0
   -3.5724   -0.4125    0.0000 C   0  0  0  0  0  0  0  0  0  0  0  0
   -2.8579   -0.8250    0.0000 C   0  0  0  0  0  0  0  0  0  0  0  0
   -2.1434   -1.2375    0.0000 C   0  0  0  0  0  0  0  0  0  0  0  0
   -1.4289   -1.6500    0.0000 C   0  0  0  0  0  0  0  0  0  0  0  0
   -0.7145   -1.2375    0.0000 N   0  0  0  0  0  0  0  0  0  0  0  0
    0.0000   -1.6500    0.0000 C   0  0  0  0  0  0  0  0  0  0  0  0
    0.7145   -1.2375    0.0000 C   0  0  0  0  0  0  0  0  0  0  0  0
    1.4289   -1.6500    0.0000 C   0  0  0  0  0  0  0  0  0  0  0  0
    2.1434   -1.2375    0.0000 C   0  0  0  0  0  0  0  0  0  0  0  0
    2.8579   -1.6500    0.0000 C   0  0  0  0  0  0  0  0  0  0  0  0
    2.8579   -2.4750    0.0000 C   0  0  0  0  0  0  0  0  0  0  0  0
    2.1434   -2.8875    0.0000 C   0  0  0  0  0  0  0  0  0  0  0  0
    1.4289   -2.4750    0.0000 C   0  0  0  0  0  0  0  0  0  0  0  0
    0.7145   -0.4125    0.0000 C   0  0  0  0  0  0  0  0  0  0  0  0
    0.0000    0.0000    0.0000 C   0  0  0  0  0  0  0  0  0  0  0  0
    0.0000    0.8250    0.0000 C   0  0  0  0  0  0  0  0  0  0  0  0
    0.7145    1.2375    0.0000 C   0  0  0  0  0  0  0  0  0  0  0  0
    1.4289    0.8250    0.0000 C   0  0  0  0  0  0  0  0  0  0  0  0
    1.4289    0.0000    0.0000 C   0  0  0  0  0  0  0  0  0  0  0  0
   -3.8743   -1.5395    0.0000 C   0  0  0  0  0  0  0  0  0  0  0  0
   -3.4618   -2.2539    0.0000 N   0  0  0  0  0  0  0  0  0  0  0  0
   -4.6993   -0.1105    0.0000 C   0  0  0  0  0  0  0  0  0  0  0  0
   -4.2868    0.6039    0.0000 C   0  0  0  0  0  0  0  0  0  0  0  0
   -5.5243   -0.1105    0.0000 C   0  0  0  0  0  0  0  0  0  0  0  0
  1  2  1  0  0  0  0
  2  3  1  0  0  0  0
  3  4  2  0  0  0  0
  3  8  1  0  0  0  0
  4  5  1  0  0  0  0
  5  6  2  0  0  0  0
  6  7  1  0  0  0  0
  6 11  1  0  0  0  0
  7  8  2  0  0  0  0
  8  9  1  0  0  0  0
  9 10  1  0  0  0  0
 11 12  1  0  0  0  0
 11 31  1  0  0  0  0
 11 33  1  0  0  0  0
 12 13  1  0  0  0  0
 13 14  3  0  0  0  0
 14 15  1  0  0  0  0
 15 16  1  0  0  0  0
 16 17  1  0  0  0  0
 17 18  1  0  0  0  0
 18 19  1  0  0  0  0
 18 25  1  0  0  0  0
 19 20  2  0  0  0  0
 19 24  1  0  0  0  0
 20 21  1  0  0  0  0
 21 22  2  0  0  0  0
 22 23  1  0  0  0  0
 23 24  2  0  0  0  0
 25 26  2  0  0  0  0
 25 30  1  0  0  0  0
 26 27  1  0  0  0  0
 27 28  2  0  0  0  0
 28 29  1  0  0  0  0
 29 30  2  0  0  0  0
 31 32  3  0  0  0  0
 33 34  1  0  0  0  0
 33 35  1  0  0  0  0
M  END
$$$$

 OpenBabel12191814062D

 23 24  0  0  0  0  0  0  0  0999 V2000
    5.2520   -4.8099    0.0000 C   0  0  0  0  0  0  0  0  0  0  0  0
    4.4270   -4.8099    0.0000 O   0  0  0  0  0  0  0  0  0  0  0  0
    4.0145   -4.0954    0.0000 C   0  0  0  0  0  0  0  0  0  0  0  0
    3.1895   -4.0954    0.0000 C   0  0  0  0  0  0  0  0  0  0  0  0
    2.7770   -3.3809    0.0000 C   0  0  0  0  0  0  0  0  0  0  0  0
    3.1895   -2.6664    0.0000 C   0  0  0  0  0  0  0  0  0  0  0  0
    4.0145   -2.6664    0.0000 C   0  0  0  0  0  0  0  0  0  0  0  0
    4.4270   -3.3809    0.0000 C   0  0  0  0  0  0  0  0  0  0  0  0
    5.2520   -3.3809    0.0000 O   0  0  0  0  0  0  0  0  0  0  0  0
    5.6645   -4.0954    0.0000 C   0  0  0  0  0  0  0  0  0  0  0  0
    2.7770   -1.9520    0.0000 C   0  0  3  0  0  0  0  0  0  0  0  0
    1.9520   -1.9520    0.0000 C   0  0  0  0  0  0  0  0  0  0  0  0
    1.5395   -1.2375    0.0000 C   0  0  0  0  0  0  0  0  0  0  0  0
    0.7145   -1.2375    0.0000 C   0  0  0  0  0  0  0  0  0  0  0  0
    0.3020   -0.5230    0.0000 C   0  0  0  0  0  0  0  0  0  0  0  0
   -0.5230   -0.5230    0.0000 C   0  0  0  0  0  0  0  0  0  0  0  0
   -0.9355    0.1914    0.0000 C   0  0  0  0  0  0  0  0  0  0  0  0
   -0.5230    0.9059    0.0000 C   0  0  0  0  0  0  0  0  0  0  0  0
    0.3020    0.9059    0.0000 C   0  0  0  0  0  0  0  0  0  0  0  0
    0.7145    0.1914    0.0000 C   0  0  0  0  0  0  0  0  0  0  0  0
    3.1895   -1.2375    0.0000 N   0  0  0  0  0  0  0  0  0  0  0  0
    2.7770   -0.5230    0.0000 C   0  0  0  0  0  0  0  0  0  0  0  0
    4.0145   -1.2375    0.0000 C   0  0  0  0  0  0  0  0  0  0  0  0
  1  2  1  0  0  0  0
  2  3  1  0  0  0  0
  3  4  2  0  0  0  0
  3  8  1  0  0  0  0
  4  5  1  0  0  0  0
  5  6  2  0  0  0  0
  6  7  1  0  0  0  0
  6 11  1  0  0  0  0
  7  8  2  0  0  0  0
  8  9  1  0  0  0  0
  9 10  1  0  0  0  0
 11 12  1  0  0  0  0
 11 21  1  0  0  0  0
 12 13  1  0  0  0  0
 13 14  1  0  0  0  0
 14 15  1  0  0  0  0
 15 16  2  0  0  0  0
 15 20  1  0  0  0  0
 16 17  1  0  0  0  0
 17 18  2  0  0  0  0
 18 19  1  0  0  0  0
 19 20  2  0  0  0  0
 21 22  1  0  0  0  0
 21 23  1  0  0  0  0
M  END
$$$$

 OpenBabel12191814062D

 43 46  0  0  0  0  0  0  0  0999 V2000
   -0.7145   -0.4125    0.0000 C   0  0  0  0  0  0  0  0  0  0  0  0
    0.0000    0.0000    0.0000 O   0  0  0  0  0  0  0  0  0  0  0  0
    0.7145   -0.4125    0.0000 C   0  0  0  0  0  0  0  0  0  0  0  0
    1.4289    0.0000    0.0000 C   0  0  0  0  0  0  0  0  0  0  0  0
    2.1434   -0.4125    0.0000 C   0  0  0  0  0  0  0  0  0  0  0  0
    2.1434   -1.2375    0.0000 C   0  0  0  0  0  0  0  0  0  0  0  0
    1.4289   -1.6500    0.0000 C   0  0  0  0  0  0  0  0  0  0  0  0
    0.7145   -1.2375    0.0000 C   0  0  0  0  0  0  0  0  0  0  0  0
    0.0000   -1.6500    0.0000 O   0  0  0  0  0  0  0  0  0  0  0  0
   -0.7145   -1.2375    0.0000 C   0  0  0  0  0  0  0  0  0  0  0  0
    2.8579   -1.6500    0.0000 C   0  0  3  0  0  0  0  0  0  0  0  0
    3.5724   -2.0625    0.0000 C   0  0  0  0  0  0  0  0  0  0  0  0
    4.2868   -1.6500    0.0000 C   0  0  0  0  0  0  0  0  0  0  0  0
    5.0013   -2.0625    0.0000 C   0  0  0  0  0  0  0  0  0  0  0  0
    5.7158   -1.6500    0.0000 C   0  0  0  0  0  0  0  0  0  0  0  0
    6.4302   -2.0625    0.0000 C   0  0  0  0  0  0  0  0  0  0  0  0
    7.1447   -1.6500    0.0000 C   0  0  0  0  0  0  0  0  0  0  0  0
    7.8592   -2.0625    0.0000 C   0  0  0  0  0  0  0  0  0  0  0  0
    8.5737   -1.6500    0.0000 C   0  0  0  0  0  0  0  0  0  0  0  0
    9.2881   -2.0625    0.0000 N   0  0  0  0  0  0  0  0  0  0  0  0
   10.0026   -1.6500    0.0000 C   0  0  0  0  0  0  0  0  0  0  0  0
   10.7171   -2.0625    0.0000 C   0  0  0  0  0  0  0  0  0  0  0  0
   10.7171   -2.8875    0.0000 C   0  0  0  0  0  0  0  0  0  0  0  0
   11.4315   -3.3000    0.0000 C   0  0  0  0  0  0  0  0  0  0  0  0
   11.4315   -4.1250    0.0000 C   0  0  0  0  0  0  0  0  0  0  0  0
   12.1460   -4.5375    0.0000 O   0  0  0  0  0  0  0  0  0  0  0  0
   12.8605   -4.1250    0.0000 C   0  0  0  0  0  0  0  0  0  0  0  0
   10.7171   -4.5375    0.0000 C   0  0  0  0  0  0  0  0  0  0  0  0
   10.7171   -5.3625    0.0000 O   0  0  0  0  0  0  0  0  0  0  0  0
   10.0026   -5.7750    0.0000 C   0  0  0  0  0  0  0  0  0  0  0  0
   10.0026   -4.1250    0.0000 C   0  0  0  0  0  0  0  0  0  0  0  0
   10.0026   -3.3000    0.0000 C   0  0  0  0  0  0  0  0  0  0  0  0
    9.2881   -2.8875    0.0000 C   0  0  0  0  0  0  0  0  0  0  0  0
    2.4454   -2.3645    0.0000 S   0  0  0  0  0  0  0  0  0  0  0  0
    2.8579   -3.0789    0.0000 C   0  0  0  0  0  0  0  0  0  0  0  0
    3.6829   -3.0789    0.0000 C   0  0  0  0  0  0  0  0  0  0  0  0
    4.0954   -3.7934    0.0000 C   0  0  0  0  0  0  0  0  0  0  0  0
    3.6829   -4.5079    0.0000 C   0  0  0  0  0  0  0  0  0  0  0  0
    4.0954   -5.2224    0.0000 C   0  0  0  0  0  0  0  0  0  0  0  0
    2.8579   -4.5079    0.0000 C   0  0  0  0  0  0  0  0  0  0  0  0
    2.4454   -3.7934    0.0000 C   0  0  0  0  0  0  0  0  0  0  0  0
    3.2704   -0.9355    0.0000 C   0  0  0  0  0  0  0  0  0  0  0  0
    3.6829   -0.2211    0.0000 N   0  0  0  0  0  0  0  0  0  0  0  0
  1  2  1  0  0  0  0
  2  3  1  0  0  0  0
  3  4  2  0  0  0  0
  3  8  1  0  0  0  0
  4  5  1  0  0  0  0
  5  6  2  0  0  0  0
  6  7  1  0  0  0  0
  6 11  1  0  0  0  0
  7  8  2  0  0  0  0
  8  9  1  0  0  0  0
  9 10  1  0  0  0  0
 11 12  1  0  0  0  0
 11 34  1  0  0  0  0
 11 42  1  0  0  0  0
 12 13  1  0  0  0  0
 13 14  1  0  0  0  0
 14 15  1  0  0  0  0
 15 16  1  0  0  0  0
 16 17  1  0  0  0  0
 17 18  1  0  0  0  0
 18 19  1  0  0  0  0
 19 20  1  0  0  0  0
 20 21  1  0  0  0  0
 20 33  1  0  0  0  0
 21 22  1  0  0  0  0
 22 23  1  0  0  0  0
 23 24  2  0  0  0  0
 23 32  1  0  0  0  0
 24 25  1  0  0  0  0
 25 26  1  0  0  0  0
 25 28  2  0  0  0  0
 26 27  1  0  0  0  0
 28 29  1  0  0  0  0
 28 31  1  0  0  0  0
 29 30  1  0  0  0  0
 31 32  2  0  0  0  0
 32 33  1  0  0  0  0
 34 35  1  0  0  0  0
 35 36  2  0  0  0  0
 35 41  1  0  0  0  0
 36 37  1  0  0  0  0
 37 38  2  0  0  0  0
 38 39  1  0  0  0  0
 38 40  1  0  0  0  0
 40 41  2  0  0  0  0
 42 43  3  0  0  0  0
M  END
$$$$

 OpenBabel12191814062D

 41 44  0  0  0  0  0  0  0  0999 V2000
   -5.0013   -7.8375    0.0000 C   0  0  0  0  0  0  0  0  0  0  0  0
   -5.0013   -7.0125    0.0000 O   0  0  0  0  0  0  0  0  0  0  0  0
   -4.2868   -6.6000    0.0000 C   0  0  0  0  0  0  0  0  0  0  0  0
   -4.2868   -5.7750    0.0000 C   0  0  0  0  0  0  0  0  0  0  0  0
   -3.5724   -5.3625    0.0000 C   0  0  0  0  0  0  0  0  0  0  0  0
   -2.8579   -5.7750    0.0000 C   0  0  0  0  0  0  0  0  0  0  0  0
   -2.8579   -6.6000    0.0000 C   0  0  0  0  0  0  0  0  0  0  0  0
   -3.5724   -7.0125    0.0000 C   0  0  0  0  0  0  0  0  0  0  0  0
   -3.5724   -7.8375    0.0000 O   0  0  0  0  0  0  0  0  0  0  0  0
   -4.2868   -8.2500    0.0000 C   0  0  0  0  0  0  0  0  0  0  0  0
   -2.1434   -5.3625    0.0000 C   0  0  3  0  0  0  0  0  0  0  0  0
   -1.4289   -4.9500    0.0000 C   0  0  0  0  0  0  0  0  0  0  0  0
   -1.4289   -4.1250    0.0000 C   0  0  0  0  0  0  0  0  0  0  0  0
   -0.7145   -3.7125    0.0000 C   0  0  0  0  0  0  0  0  0  0  0  0
   -0.7145   -2.8875    0.0000 C   0  0  0  0  0  0  0  0  0  0  0  0
    0.0000   -2.4750    0.0000 C   0  0  0  0  0  0  0  0  0  0  0  0
    0.0000   -1.6500    0.0000 C   0  0  0  0  0  0  0  0  0  0  0  0
    0.7145   -1.2375    0.0000 N   0  0  0  0  0  0  0  0  0  0  0  0
    0.7145   -0.4125    0.0000 C   0  0  0  0  0  0  0  0  0  0  0  0
    1.4289    0.0000    0.0000 C   0  0  0  0  0  0  0  0  0  0  0  0
    2.1434   -0.4125    0.0000 C   0  0  0  0  0  0  0  0  0  0  0  0
    2.8579    0.0000    0.0000 C   0  0  0  0  0  0  0  0  0  0  0  0
    3.5724   -0.4125    0.0000 C   0  0  0  0  0  0  0  0  0  0  0  0
    4.2868   -0.0000    0.0000 O   0  0  0  0  0  0  0  0  0  0  0  0
    4.2868    0.8250    0.0000 C   0  0  0  0  0  0  0  0  0  0  0  0
    3.5724   -1.2375    0.0000 C   0  0  0  0  0  0  0  0  0  0  0  0
    4.2868   -1.6500    0.0000 O   0  0  0  0  0  0  0  0  0  0  0  0
    4.2868   -2.4750    0.0000 C   0  0  0  0  0  0  0  0  0  0  0  0
    2.8579   -1.6500    0.0000 C   0  0  0  0  0  0  0  0  0  0  0  0
    2.1434   -1.2375    0.0000 C   0  0  0  0  0  0  0  0  0  0  0  0
    1.4289   -1.6500    0.0000 C   0  0  0  0  0  0  0  0  0  0  0  0
   -1.7309   -6.0770    0.0000 S   0  0  0  0  0  0  0  0  0  0  0  0
   -0.9059   -6.0770    0.0000 C   0  0  0  0  0  0  0  0  0  0  0  0
   -0.4934   -5.3625    0.0000 C   0  0  0  0  0  0  0  0  0  0  0  0
    0.3316   -5.3625    0.0000 C   0  0  0  0  0  0  0  0  0  0  0  0
    0.7441   -6.0770    0.0000 C   0  0  0  0  0  0  0  0  0  0  0  0
    1.5691   -6.0770    0.0000 C   0  0  0  0  0  0  0  0  0  0  0  0
    0.3316   -6.7914    0.0000 C   0  0  0  0  0  0  0  0  0  0  0  0
   -0.4934   -6.7914    0.0000 C   0  0  0  0  0  0  0  0  0  0  0  0
   -2.5559   -4.6480    0.0000 C   0  0  0  0  0  0  0  0  0  0  0  0
   -2.9684   -3.9336    0.0000 N   0  0  0  0  0  0  0  0  0  0  0  0
  1  2  1  0  0  0  0
  2  3  1  0  0  0  0
  3  4  2  0  0  0  0
  3  8  1  0  0  0  0
  4  5  1  0  0  0  0
  5  6  2  0  0  0  0
  6  7  1  0  0  0  0
  6 11  1  0  0  0  0
  7  8  2  0  0  0  0
  8  9  1  0  0  0  0
  9 10  1  0  0  0  0
 11 12  1  0  0  0  0
 11 32  1  0  0  0  0
 11 40  1  0  0  0  0
 12 13  1  0  0  0  0
 13 14  1  0  0  0  0
 14 15  1  0  0  0  0
 15 16  1  0  0  0  0
 16 17  1  0  0  0  0
 17 18  1  0  0  0  0
 18 19  1  0  0  0  0
 18 31  1  0  0  0  0
 19 20  1  0  0  0  0
 20 21  1  0  0  0  0
 21 22  2  0  0  0  0
 21 30  1  0  0  0  0
 22 23  1  0  0  0  0
 23 24  1  0  0  0  0
 23 26  2  0  0  0  0
 24 25  1  0  0  0  0
 26 27  1  0  0  0  0
 26 29  1  0  0  0  0
 27 28  1  0  0  0  0
 29 30  2  0  0  0  0
 30 31  1  0  0  0  0
 32 33  1  0  0  0  0
 33 34  2  0  0  0  0
 33 39  1  0  0  0  0
 34 35  1  0  0  0  0
 35 36  2  0  0  0  0
 36 37  1  0  0  0  0
 36 38  1  0  0  0  0
 38 39  2  0  0  0  0
 40 41  3  0  0  0  0
M  END
$$$$

 OpenBabel12191814062D

 39 42  0  0  0  0  0  0  0  0999 V2000
   -6.6311   -1.6039    0.0000 C   0  0  0  0  0  0  0  0  0  0  0  0
   -5.9166   -1.1914    0.0000 O   0  0  0  0  0  0  0  0  0  0  0  0
   -5.2021   -1.6039    0.0000 C   0  0  0  0  0  0  0  0  0  0  0  0
   -5.2021   -2.4289    0.0000 C   0  0  0  0  0  0  0  0  0  0  0  0
   -4.4876   -2.8414    0.0000 C   0  0  0  0  0  0  0  0  0  0  0  0
   -3.7732   -2.4289    0.0000 C   0  0  0  0  0  0  0  0  0  0  0  0
   -3.7732   -1.6039    0.0000 C   0  0  0  0  0  0  0  0  0  0  0  0
   -4.4876   -1.1914    0.0000 C   0  0  0  0  0  0  0  0  0  0  0  0
   -4.4876   -0.3664    0.0000 O   0  0  0  0  0  0  0  0  0  0  0  0
   -3.7732    0.0461    0.0000 C   0  0  0  0  0  0  0  0  0  0  0  0
   -3.0587   -2.8414    0.0000 C   0  0  3  0  0  0  0  0  0  0  0  0
   -2.6462   -2.1269    0.0000 C   0  0  0  0  0  0  0  0  0  0  0  0
   -1.8212   -2.1269    0.0000 C   0  0  0  0  0  0  0  0  0  0  0  0
   -1.4087   -1.4124    0.0000 C   0  0  0  0  0  0  0  0  0  0  0  0
   -0.5837   -1.4124    0.0000 C   0  0  0  0  0  0  0  0  0  0  0  0
   -0.1712   -0.6979    0.0000 C   0  0  0  0  0  0  0  0  0  0  0  0
    0.6538   -0.6979    0.0000 N   0  0  0  0  0  0  0  0  0  0  0  0
    1.1387   -0.0305    0.0000 C   0  0  0  0  0  0  0  0  0  0  0  0
    1.9233   -0.2854    0.0000 C   0  0  0  0  0  0  0  0  0  0  0  0
    2.6378    0.1271    0.0000 C   0  0  0  0  0  0  0  0  0  0  0  0
    3.3523   -0.2854    0.0000 C   0  0  0  0  0  0  0  0  0  0  0  0
    4.0668    0.1271    0.0000 O   0  0  0  0  0  0  0  0  0  0  0  0
    4.0668    0.9521    0.0000 C   0  0  0  0  0  0  0  0  0  0  0  0
    3.3523   -1.1104    0.0000 C   0  0  0  0  0  0  0  0  0  0  0  0
    4.0668   -1.5229    0.0000 O   0  0  0  0  0  0  0  0  0  0  0  0
    4.0668   -2.3479    0.0000 C   0  0  0  0  0  0  0  0  0  0  0  0
    2.6378   -1.5229    0.0000 C   0  0  0  0  0  0  0  0  0  0  0  0
    1.9233   -1.1104    0.0000 C   0  0  0  0  0  0  0  0  0  0  0  0
    1.1387   -1.3654    0.0000 C   0  0  0  0  0  0  0  0  0  0  0  0
   -3.4712   -3.5558    0.0000 S   0  0  0  0  0  0  0  0  0  0  0  0
   -3.0587   -4.2703    0.0000 C   0  0  0  0  0  0  0  0  0  0  0  0
   -2.2337   -4.2703    0.0000 C   0  0  0  0  0  0  0  0  0  0  0  0
   -1.8212   -4.9848    0.0000 C   0  0  0  0  0  0  0  0  0  0  0  0
   -2.2337   -5.6992    0.0000 C   0  0  0  0  0  0  0  0  0  0  0  0
   -1.8212   -6.4137    0.0000 C   0  0  0  0  0  0  0  0  0  0  0  0
   -3.0587   -5.6992    0.0000 C   0  0  0  0  0  0  0  0  0  0  0  0
   -3.4712   -4.9848    0.0000 C   0  0  0  0  0  0  0  0  0  0  0  0
   -2.3442   -3.2539    0.0000 C   0  0  0  0  0  0  0  0  0  0  0  0
   -1.6298   -3.6664    0.0000 N   0  0  0  0  0  0  0  0  0  0  0  0
  1  2  1  0  0  0  0
  2  3  1  0  0  0  0
  3  4  2  0  0  0  0
  3  8  1  0  0  0  0
  4  5  1  0  0  0  0
  5  6  2  0  0  0  0
  6  7  1  0  0  0  0
  6 11  1  0  0  0  0
  7  8  2  0  0  0  0
  8  9  1  0  0  0  0
  9 10  1  0  0  0  0
 11 12  1  0  0  0  0
 11 30  1  0  0  0  0
 11 38  1  0  0  0  0
 12 13  1  0  0  0  0
 13 14  1  0  0  0  0
 14 15  1  0  0  0  0
 15 16  1  0  0  0  0
 16 17  1  0  0  0  0
 17 18  1  0  0  0  0
 17 29  1  0  0  0  0
 18 19  1  0  0  0  0
 19 20  2  0  0  0  0
 19 28  1  0  0  0  0
 20 21  1  0  0  0  0
 21 22  1  0  0  0  0
 21 24  2  0  0  0  0
 22 23  1  0  0  0  0
 24 25  1  0  0  0  0
 24 27  1  0  0  0  0
 25 26  1  0  0  0  0
 27 28  2  0  0  0  0
 28 29  1  0  0  0  0
 30 31  1  0  0  0  0
 31 32  2  0  0  0  0
 31 37  1  0  0  0  0
 32 33  1  0  0  0  0
 33 34  2  0  0  0  0
 34 35  1  0  0  0  0
 34 36  1  0  0  0  0
 36 37  2  0  0  0  0
 38 39  3  0  0  0  0
M  END
$$$$

 OpenBabel12191814062D

 38 41  0  0  0  0  0  0  0  0999 V2000
   -6.6311   -1.6039    0.0000 C   0  0  0  0  0  0  0  0  0  0  0  0
   -5.9166   -1.1914    0.0000 O   0  0  0  0  0  0  0  0  0  0  0  0
   -5.2021   -1.6039    0.0000 C   0  0  0  0  0  0  0  0  0  0  0  0
   -5.2021   -2.4289    0.0000 C   0  0  0  0  0  0  0  0  0  0  0  0
   -4.4876   -2.8414    0.0000 C   0  0  0  0  0  0  0  0  0  0  0  0
   -3.7732   -2.4289    0.0000 C   0  0  0  0  0  0  0  0  0  0  0  0
   -3.7732   -1.6039    0.0000 C   0  0  0  0  0  0  0  0  0  0  0  0
   -4.4876   -1.1914    0.0000 C   0  0  0  0  0  0  0  0  0  0  0  0
   -4.4876   -0.3664    0.0000 O   0  0  0  0  0  0  0  0  0  0  0  0
   -3.7732    0.0461    0.0000 C   0  0  0  0  0  0  0  0  0  0  0  0
   -3.0587   -2.8414    0.0000 C   0  0  3  0  0  0  0  0  0  0  0  0
   -2.6462   -2.1269    0.0000 C   0  0  0  0  0  0  0  0  0  0  0  0
   -1.8212   -2.1269    0.0000 C   0  0  0  0  0  0  0  0  0  0  0  0
   -1.4087   -1.4124    0.0000 C   0  0  0  0  0  0  0  0  0  0  0  0
   -0.5837   -1.4124    0.0000 C   0  0  0  0  0  0  0  0  0  0  0  0
   -0.1712   -0.6979    0.0000 C   0  0  0  0  0  0  0  0  0  0  0  0
    0.6538   -0.6979    0.0000 N   0  0  0  0  0  0  0  0  0  0  0  0
    1.1387   -0.0305    0.0000 C   0  0  0  0  0  0  0  0  0  0  0  0
    1.9233   -0.2854    0.0000 C   0  0  0  0  0  0  0  0  0  0  0  0
    2.6378    0.1271    0.0000 C   0  0  0  0  0  0  0  0  0  0  0  0
    3.3523   -0.2854    0.0000 C   0  0  0  0  0  0  0  0  0  0  0  0
    4.0668    0.1271    0.0000 O   0  0  0  0  0  0  0  0  0  0  0  0
    4.0668    0.9521    0.0000 C   0  0  0  0  0  0  0  0  0  0  0  0
    3.3523   -1.1104    0.0000 C   0  0  0  0  0  0  0  0  0  0  0  0
    4.0668   -1.5229    0.0000 O   0  0  0  0  0  0  0  0  0  0  0  0
    4.0668   -2.3479    0.0000 C   0  0  0  0  0  0  0  0  0  0  0  0
    2.6378   -1.5229    0.0000 C   0  0  0  0  0  0  0  0  0  0  0  0
    1.9233   -1.1104    0.0000 C   0  0  0  0  0  0  0  0  0  0  0  0
    1.1387   -1.3654    0.0000 C   0  0  0  0  0  0  0  0  0  0  0  0
   -3.4712   -3.5558    0.0000 S   0  0  0  0  0  0  0  0  0  0  0  0
   -3.0587   -4.2703    0.0000 C   0  0  0  0  0  0  0  0  0  0  0  0
   -2.2337   -4.2703    0.0000 C   0  0  0  0  0  0  0  0  0  0  0  0
   -1.8212   -4.9848    0.0000 C   0  0  0  0  0  0  0  0  0  0  0  0
   -2.2337   -5.6992    0.0000 C   0  0  0  0  0  0  0  0  0  0  0  0
   -3.0587   -5.6992    0.0000 C   0  0  0  0  0  0  0  0  0  0  0  0
   -3.4712   -4.9848    0.0000 C   0  0  0  0  0  0  0  0  0  0  0  0
   -2.3442   -3.2539    0.0000 C   0  0  0  0  0  0  0  0  0  0  0  0
   -1.6298   -3.6664    0.0000 N   0  0  0  0  0  0  0  0  0  0  0  0
  1  2  1  0  0  0  0
  2  3  1  0  0  0  0
  3  4  2  0  0  0  0
  3  8  1  0  0  0  0
  4  5  1  0  0  0  0
  5  6  2  0  0  0  0
  6  7  1  0  0  0  0
  6 11  1  0  0  0  0
  7  8  2  0  0  0  0
  8  9  1  0  0  0  0
  9 10  1  0  0  0  0
 11 12  1  0  0  0  0
 11 30  1  0  0  0  0
 11 37  1  0  0  0  0
 12 13  1  0  0  0  0
 13 14  1  0  0  0  0
 14 15  1  0  0  0  0
 15 16  1  0  0  0  0
 16 17  1  0  0  0  0
 17 18  1  0  0  0  0
 17 29  1  0  0  0  0
 18 19  1  0  0  0  0
 19 20  2  0  0  0  0
 19 28  1  0  0  0  0
 20 21  1  0  0  0  0
 21 22  1  0  0  0  0
 21 24  2  0  0  0  0
 22 23  1  0  0  0  0
 24 25  1  0  0  0  0
 24 27  1  0  0  0  0
 25 26  1  0  0  0  0
 27 28  2  0  0  0  0
 28 29  1  0  0  0  0
 30 31  1  0  0  0  0
 31 32  1  0  0  0  0
 31 36  1  0  0  0  0
 32 33  1  0  0  0  0
 33 34  1  0  0  0  0
 34 35  1  0  0  0  0
 35 36  1  0  0  0  0
 37 38  3  0  0  0  0
M  END
$$$$

 OpenBabel12191814062D

 40 43  0  0  0  0  0  0  0  0999 V2000
   -5.1414   -5.6645    0.0000 C   0  0  0  0  0  0  0  0  0  0  0  0
   -4.7289   -4.9500    0.0000 O   0  0  0  0  0  0  0  0  0  0  0  0
   -3.9039   -4.9500    0.0000 C   0  0  0  0  0  0  0  0  0  0  0  0
   -3.4914   -5.6645    0.0000 C   0  0  0  0  0  0  0  0  0  0  0  0
   -2.6664   -5.6645    0.0000 C   0  0  0  0  0  0  0  0  0  0  0  0
   -2.2539   -4.9500    0.0000 C   0  0  0  0  0  0  0  0  0  0  0  0
   -2.6664   -4.2355    0.0000 C   0  0  0  0  0  0  0  0  0  0  0  0
   -3.4914   -4.2355    0.0000 C   0  0  0  0  0  0  0  0  0  0  0  0
   -3.9039   -3.5211    0.0000 O   0  0  0  0  0  0  0  0  0  0  0  0
   -3.4914   -2.8066    0.0000 C   0  0  0  0  0  0  0  0  0  0  0  0
   -1.4289   -4.9500    0.0000 C   0  0  3  0  0  0  0  0  0  0  0  0
   -1.4289   -4.1250    0.0000 C   0  0  0  0  0  0  0  0  0  0  0  0
   -0.7145   -3.7125    0.0000 C   0  0  0  0  0  0  0  0  0  0  0  0
   -0.7145   -2.8875    0.0000 C   0  0  0  0  0  0  0  0  0  0  0  0
    0.0000   -2.4750    0.0000 C   0  0  0  0  0  0  0  0  0  0  0  0
    0.0000   -1.6500    0.0000 C   0  0  0  0  0  0  0  0  0  0  0  0
    0.7145   -1.2375    0.0000 N   0  0  0  0  0  0  0  0  0  0  0  0
    0.7145   -0.4125    0.0000 C   0  0  0  0  0  0  0  0  0  0  0  0
    1.4289    0.0000    0.0000 C   0  0  0  0  0  0  0  0  0  0  0  0
    2.1434   -0.4125    0.0000 C   0  0  0  0  0  0  0  0  0  0  0  0
    2.8579    0.0000    0.0000 C   0  0  0  0  0  0  0  0  0  0  0  0
    3.5724   -0.4125    0.0000 C   0  0  0  0  0  0  0  0  0  0  0  0
    4.2868   -0.0000    0.0000 O   0  0  0  0  0  0  0  0  0  0  0  0
    4.2868    0.8250    0.0000 C   0  0  0  0  0  0  0  0  0  0  0  0
    3.5724   -1.2375    0.0000 C   0  0  0  0  0  0  0  0  0  0  0  0
    4.2868   -1.6500    0.0000 O   0  0  0  0  0  0  0  0  0  0  0  0
    4.2868   -2.4750    0.0000 C   0  0  0  0  0  0  0  0  0  0  0  0
    2.8579   -1.6500    0.0000 C   0  0  0  0  0  0  0  0  0  0  0  0
    2.1434   -1.2375    0.0000 C   0  0  0  0  0  0  0  0  0  0  0  0
    1.4289   -1.6500    0.0000 C   0  0  0  0  0  0  0  0  0  0  0  0
   -1.4289   -5.7750    0.0000 S   0  0  0  0  0  0  0  0  0  0  0  0
   -0.7145   -6.1875    0.0000 C   0  0  0  0  0  0  0  0  0  0  0  0
    0.0000   -5.7750    0.0000 C   0  0  0  0  0  0  0  0  0  0  0  0
    0.7145   -6.1875    0.0000 C   0  0  0  0  0  0  0  0  0  0  0  0
    0.7145   -7.0125    0.0000 C   0  0  0  0  0  0  0  0  0  0  0  0
    1.4289   -7.4250    0.0000 C   0  0  0  0  0  0  0  0  0  0  0  0
    0.0000   -7.4250    0.0000 C   0  0  0  0  0  0  0  0  0  0  0  0
   -0.7145   -7.0125    0.0000 C   0  0  0  0  0  0  0  0  0  0  0  0
   -0.6039   -4.9500    0.0000 C   0  0  0  0  0  0  0  0  0  0  0  0
    0.2211   -4.9500    0.0000 N   0  0  0  0  0  0  0  0  0  0  0  0
  1  2  1  0  0  0  0
  2  3  1  0  0  0  0
  3  4  2  0  0  0  0
  3  8  1  0  0  0  0
  4  5  1  0  0  0  0
  5  6  2  0  0  0  0
  6  7  1  0  0  0  0
  6 11  1  0  0  0  0
  7  8  2  0  0  0  0
  8  9  1  0  0  0  0
  9 10  1  0  0  0  0
 11 12  1  0  0  0  0
 11 31  1  0  0  0  0
 11 39  1  0  0  0  0
 12 13  1  0  0  0  0
 13 14  1  0  0  0  0
 14 15  1  0  0  0  0
 15 16  1  0  0  0  0
 16 17  1  0  0  0  0
 17 18  1  0  0  0  0
 17 30  1  0  0  0  0
 18 19  1  0  0  0  0
 19 20  1  0  0  0  0
 20 21  2  0  0  0  0
 20 29  1  0  0  0  0
 21 22  1  0  0  0  0
 22 23  1  0  0  0  0
 22 25  2  0  0  0  0
 23 24  1  0  0  0  0
 25 26  1  0  0  0  0
 25 28  1  0  0  0  0
 26 27  1  0  0  0  0
 28 29  2  0  0  0  0
 29 30  1  0  0  0  0
 31 32  1  0  0  0  0
 32 33  2  0  0  0  0
 32 38  1  0  0  0  0
 33 34  1  0  0  0  0
 34 35  2  0  0  0  0
 35 36  1  0  0  0  0
 35 37  1  0  0  0  0
 37 38  2  0  0  0  0
 39 40  3  0  0  0  0
M  END
$$$$

 OpenBabel12191814062D

 39 42  0  0  0  0  0  0  0  0999 V2000
   -5.1414   -5.6645    0.0000 C   0  0  0  0  0  0  0  0  0  0  0  0
   -4.7289   -4.9500    0.0000 O   0  0  0  0  0  0  0  0  0  0  0  0
   -3.9039   -4.9500    0.0000 C   0  0  0  0  0  0  0  0  0  0  0  0
   -3.4914   -5.6645    0.0000 C   0  0  0  0  0  0  0  0  0  0  0  0
   -2.6664   -5.6645    0.0000 C   0  0  0  0  0  0  0  0  0  0  0  0
   -2.2539   -4.9500    0.0000 C   0  0  0  0  0  0  0  0  0  0  0  0
   -2.6664   -4.2355    0.0000 C   0  0  0  0  0  0  0  0  0  0  0  0
   -3.4914   -4.2355    0.0000 C   0  0  0  0  0  0  0  0  0  0  0  0
   -3.9039   -3.5211    0.0000 O   0  0  0  0  0  0  0  0  0  0  0  0
   -3.4914   -2.8066    0.0000 C   0  0  0  0  0  0  0  0  0  0  0  0
   -1.4289   -4.9500    0.0000 C   0  0  3  0  0  0  0  0  0  0  0  0
   -1.4289   -4.1250    0.0000 C   0  0  0  0  0  0  0  0  0  0  0  0
   -0.7145   -3.7125    0.0000 C   0  0  0  0  0  0  0  0  0  0  0  0
   -0.7145   -2.8875    0.0000 C   0  0  0  0  0  0  0  0  0  0  0  0
    0.0000   -2.4750    0.0000 C   0  0  0  0  0  0  0  0  0  0  0  0
    0.0000   -1.6500    0.0000 C   0  0  0  0  0  0  0  0  0  0  0  0
    0.7145   -1.2375    0.0000 N   0  0  0  0  0  0  0  0  0  0  0  0
    0.7145   -0.4125    0.0000 C   0  0  0  0  0  0  0  0  0  0  0  0
    1.4289    0.0000    0.0000 C   0  0  0  0  0  0  0  0  0  0  0  0
    2.1434   -0.4125    0.0000 C   0  0  0  0  0  0  0  0  0  0  0  0
    2.8579    0.0000    0.0000 C   0  0  0  0  0  0  0  0  0  0  0  0
    3.5724   -0.4125    0.0000 C   0  0  0  0  0  0  0  0  0  0  0  0
    4.2868   -0.0000    0.0000 O   0  0  0  0  0  0  0  0  0  0  0  0
    4.2868    0.8250    0.0000 C   0  0  0  0  0  0  0  0  0  0  0  0
    3.5724   -1.2375    0.0000 C   0  0  0  0  0  0  0  0  0  0  0  0
    4.2868   -1.6500    0.0000 O   0  0  0  0  0  0  0  0  0  0  0  0
    4.2868   -2.4750    0.0000 C   0  0  0  0  0  0  0  0  0  0  0  0
    2.8579   -1.6500    0.0000 C   0  0  0  0  0  0  0  0  0  0  0  0
    2.1434   -1.2375    0.0000 C   0  0  0  0  0  0  0  0  0  0  0  0
    1.4289   -1.6500    0.0000 C   0  0  0  0  0  0  0  0  0  0  0  0
   -1.4289   -5.7750    0.0000 S   0  0  0  0  0  0  0  0  0  0  0  0
   -0.7145   -6.1875    0.0000 C   0  0  0  0  0  0  0  0  0  0  0  0
    0.0000   -5.7750    0.0000 C   0  0  0  0  0  0  0  0  0  0  0  0
    0.7145   -6.1875    0.0000 C   0  0  0  0  0  0  0  0  0  0  0  0
    0.7145   -7.0125    0.0000 C   0  0  0  0  0  0  0  0  0  0  0  0
    0.0000   -7.4250    0.0000 C   0  0  0  0  0  0  0  0  0  0  0  0
   -0.7145   -7.0125    0.0000 C   0  0  0  0  0  0  0  0  0  0  0  0
   -0.6039   -4.9500    0.0000 C   0  0  0  0  0  0  0  0  0  0  0  0
    0.2211   -4.9500    0.0000 N   0  0  0  0  0  0  0  0  0  0  0  0
  1  2  1  0  0  0  0
  2  3  1  0  0  0  0
  3  4  2  0  0  0  0
  3  8  1  0  0  0  0
  4  5  1  0  0  0  0
  5  6  2  0  0  0  0
  6  7  1  0  0  0  0
  6 11  1  0  0  0  0
  7  8  2  0  0  0  0
  8  9  1  0  0  0  0
  9 10  1  0  0  0  0
 11 12  1  0  0  0  0
 11 31  1  0  0  0  0
 11 38  1  0  0  0  0
 12 13  1  0  0  0  0
 13 14  1  0  0  0  0
 14 15  1  0  0  0  0
 15 16  1  0  0  0  0
 16 17  1  0  0  0  0
 17 18  1  0  0  0  0
 17 30  1  0  0  0  0
 18 19  1  0  0  0  0
 19 20  1  0  0  0  0
 20 21  2  0  0  0  0
 20 29  1  0  0  0  0
 21 22  1  0  0  0  0
 22 23  1  0  0  0  0
 22 25  2  0  0  0  0
 23 24  1  0  0  0  0
 25 26  1  0  0  0  0
 25 28  1  0  0  0  0
 26 27  1  0  0  0  0
 28 29  2  0  0  0  0
 29 30  1  0  0  0  0
 31 32  1  0  0  0  0
 32 33  1  0  0  0  0
 32 37  1  0  0  0  0
 33 34  1  0  0  0  0
 34 35  1  0  0  0  0
 35 36  1  0  0  0  0
 36 37  1  0  0  0  0
 38 39  3  0  0  0  0
M  END
$$$$

 OpenBabel12191814062D

 38 41  0  0  0  0  0  0  0  0999 V2000
    9.3390   -4.7682    0.0000 C   0  0  0  0  0  0  0  0  0  0  0  0
    8.5288   -4.9241    0.0000 O   0  0  0  0  0  0  0  0  0  0  0  0
    7.9887   -4.3005    0.0000 C   0  0  0  0  0  0  0  0  0  0  0  0
    7.1786   -4.4564    0.0000 C   0  0  0  0  0  0  0  0  0  0  0  0
    6.6385   -3.8327    0.0000 C   0  0  0  0  0  0  0  0  0  0  0  0
    6.9086   -3.0532    0.0000 C   0  0  0  0  0  0  0  0  0  0  0  0
    7.7187   -2.8973    0.0000 C   0  0  0  0  0  0  0  0  0  0  0  0
    8.2588   -3.5209    0.0000 C   0  0  0  0  0  0  0  0  0  0  0  0
    9.0689   -3.3650    0.0000 O   0  0  0  0  0  0  0  0  0  0  0  0
    9.6090   -3.9887    0.0000 C   0  0  0  0  0  0  0  0  0  0  0  0
    6.3685   -2.4296    0.0000 C   0  0  3  0  0  0  0  0  0  0  0  0
    5.5583   -2.5855    0.0000 C   0  0  0  0  0  0  0  0  0  0  0  0
    5.0182   -1.9618    0.0000 C   0  0  0  0  0  0  0  0  0  0  0  0
    4.2081   -2.1177    0.0000 C   0  0  0  0  0  0  0  0  0  0  0  0
    3.6680   -1.4941    0.0000 C   0  0  0  0  0  0  0  0  0  0  0  0
    2.8579   -1.6500    0.0000 C   0  0  0  0  0  0  0  0  0  0  0  0
    2.3178   -1.0264    0.0000 N   0  0  0  0  0  0  0  0  0  0  0  0
    1.5077   -1.1823    0.0000 C   0  0  0  0  0  0  0  0  0  0  0  0
    0.9676   -0.5586    0.0000 C   0  0  0  0  0  0  0  0  0  0  0  0
    1.2376    0.2209    0.0000 C   0  0  0  0  0  0  0  0  0  0  0  0
    0.6975    0.8446    0.0000 C   0  0  0  0  0  0  0  0  0  0  0  0
    0.9676    1.6241    0.0000 C   0  0  0  0  0  0  0  0  0  0  0  0
    0.4275    2.2478    0.0000 O   0  0  0  0  0  0  0  0  0  0  0  0
   -0.3827    2.0918    0.0000 C   0  0  0  0  0  0  0  0  0  0  0  0
    1.7777    1.7800    0.0000 C   0  0  0  0  0  0  0  0  0  0  0  0
    2.0477    2.5596    0.0000 O   0  0  0  0  0  0  0  0  0  0  0  0
    2.8579    2.7155    0.0000 C   0  0  0  0  0  0  0  0  0  0  0  0
    2.3178    1.1564    0.0000 C   0  0  0  0  0  0  0  0  0  0  0  0
    2.0477    0.3768    0.0000 C   0  0  0  0  0  0  0  0  0  0  0  0
    2.5878   -0.2468    0.0000 C   0  0  0  0  0  0  0  0  0  0  0  0
    6.6385   -1.6500    0.0000 S   0  0  0  0  0  0  0  0  0  0  0  0
    7.4486   -1.4941    0.0000 C   0  0  0  0  0  0  0  0  0  0  0  0
    7.7187   -0.7145    0.0000 C   0  0  0  0  0  0  0  0  0  0  0  0
    8.5288   -0.5586    0.0000 C   0  0  0  0  0  0  0  0  0  0  0  0
    9.0689   -1.1823    0.0000 C   0  0  0  0  0  0  0  0  0  0  0  0
    9.8790   -1.0264    0.0000 C   0  0  0  0  0  0  0  0  0  0  0  0
    8.7989   -1.9618    0.0000 C   0  0  0  0  0  0  0  0  0  0  0  0
    7.9887   -2.1177    0.0000 C   0  0  0  0  0  0  0  0  0  0  0  0
  1  2  1  0  0  0  0
  2  3  1  0  0  0  0
  3  4  2  0  0  0  0
  3  8  1  0  0  0  0
  4  5  1  0  0  0  0
  5  6  2  0  0  0  0
  6  7  1  0  0  0  0
  6 11  1  0  0  0  0
  7  8  2  0  0  0  0
  8  9  1  0  0  0  0
  9 10  1  0  0  0  0
 11 12  1  0  0  0  0
 11 31  1  0  0  0  0
 12 13  1  0  0  0  0
 13 14  1  0  0  0  0
 14 15  1  0  0  0  0
 15 16  1  0  0  0  0
 16 17  1  0  0  0  0
 17 18  1  0  0  0  0
 17 30  1  0  0  0  0
 18 19  1  0  0  0  0
 19 20  1  0  0  0  0
 20 21  2  0  0  0  0
 20 29  1  0  0  0  0
 21 22  1  0  0  0  0
 22 23  1  0  0  0  0
 22 25  2  0  0  0  0
 23 24  1  0  0  0  0
 25 26  1  0  0  0  0
 25 28  1  0  0  0  0
 26 27  1  0  0  0  0
 28 29  2  0  0  0  0
 29 30  1  0  0  0  0
 31 32  1  0  0  0  0
 32 33  2  0  0  0  0
 32 38  1  0  0  0  0
 33 34  1  0  0  0  0
 34 35  2  0  0  0  0
 35 36  1  0  0  0  0
 35 37  1  0  0  0  0
 37 38  2  0  0  0  0
M  END
$$$$

 OpenBabel12191814062D

 37 40  0  0  0  0  0  0  0  0999 V2000
    9.3390   -4.7682    0.0000 C   0  0  0  0  0  0  0  0  0  0  0  0
    8.5288   -4.9241    0.0000 O   0  0  0  0  0  0  0  0  0  0  0  0
    7.9887   -4.3005    0.0000 C   0  0  0  0  0  0  0  0  0  0  0  0
    7.1786   -4.4564    0.0000 C   0  0  0  0  0  0  0  0  0  0  0  0
    6.6385   -3.8327    0.0000 C   0  0  0  0  0  0  0  0  0  0  0  0
    6.9086   -3.0532    0.0000 C   0  0  0  0  0  0  0  0  0  0  0  0
    7.7187   -2.8973    0.0000 C   0  0  0  0  0  0  0  0  0  0  0  0
    8.2588   -3.5209    0.0000 C   0  0  0  0  0  0  0  0  0  0  0  0
    9.0689   -3.3650    0.0000 O   0  0  0  0  0  0  0  0  0  0  0  0
    9.6090   -3.9887    0.0000 C   0  0  0  0  0  0  0  0  0  0  0  0
    6.3685   -2.4296    0.0000 C   0  0  3  0  0  0  0  0  0  0  0  0
    5.5583   -2.5855    0.0000 C   0  0  0  0  0  0  0  0  0  0  0  0
    5.0182   -1.9618    0.0000 C   0  0  0  0  0  0  0  0  0  0  0  0
    4.2081   -2.1177    0.0000 C   0  0  0  0  0  0  0  0  0  0  0  0
    3.6680   -1.4941    0.0000 C   0  0  0  0  0  0  0  0  0  0  0  0
    2.8579   -1.6500    0.0000 C   0  0  0  0  0  0  0  0  0  0  0  0
    2.3178   -1.0264    0.0000 N   0  0  0  0  0  0  0  0  0  0  0  0
    1.5077   -1.1823    0.0000 C   0  0  0  0  0  0  0  0  0  0  0  0
    0.9676   -0.5586    0.0000 C   0  0  0  0  0  0  0  0  0  0  0  0
    1.2376    0.2209    0.0000 C   0  0  0  0  0  0  0  0  0  0  0  0
    0.6975    0.8446    0.0000 C   0  0  0  0  0  0  0  0  0  0  0  0
    0.9676    1.6241    0.0000 C   0  0  0  0  0  0  0  0  0  0  0  0
    0.4275    2.2478    0.0000 O   0  0  0  0  0  0  0  0  0  0  0  0
   -0.3827    2.0918    0.0000 C   0  0  0  0  0  0  0  0  0  0  0  0
    1.7777    1.7800    0.0000 C   0  0  0  0  0  0  0  0  0  0  0  0
    2.0477    2.5596    0.0000 O   0  0  0  0  0  0  0  0  0  0  0  0
    2.8579    2.7155    0.0000 C   0  0  0  0  0  0  0  0  0  0  0  0
    2.3178    1.1564    0.0000 C   0  0  0  0  0  0  0  0  0  0  0  0
    2.0477    0.3768    0.0000 C   0  0  0  0  0  0  0  0  0  0  0  0
    2.5878   -0.2468    0.0000 C   0  0  0  0  0  0  0  0  0  0  0  0
    6.6385   -1.6500    0.0000 S   0  0  0  0  0  0  0  0  0  0  0  0
    7.4486   -1.4941    0.0000 C   0  0  0  0  0  0  0  0  0  0  0  0
    7.7187   -0.7145    0.0000 C   0  0  0  0  0  0  0  0  0  0  0  0
    8.5288   -0.5586    0.0000 C   0  0  0  0  0  0  0  0  0  0  0  0
    9.0689   -1.1823    0.0000 C   0  0  0  0  0  0  0  0  0  0  0  0
    8.7989   -1.9618    0.0000 C   0  0  0  0  0  0  0  0  0  0  0  0
    7.9887   -2.1177    0.0000 C   0  0  0  0  0  0  0  0  0  0  0  0
  1  2  1  0  0  0  0
  2  3  1  0  0  0  0
  3  4  2  0  0  0  0
  3  8  1  0  0  0  0
  4  5  1  0  0  0  0
  5  6  2  0  0  0  0
  6  7  1  0  0  0  0
  6 11  1  0  0  0  0
  7  8  2  0  0  0  0
  8  9  1  0  0  0  0
  9 10  1  0  0  0  0
 11 12  1  0  0  0  0
 11 31  1  0  0  0  0
 12 13  1  0  0  0  0
 13 14  1  0  0  0  0
 14 15  1  0  0  0  0
 15 16  1  0  0  0  0
 16 17  1  0  0  0  0
 17 18  1  0  0  0  0
 17 30  1  0  0  0  0
 18 19  1  0  0  0  0
 19 20  1  0  0  0  0
 20 21  2  0  0  0  0
 20 29  1  0  0  0  0
 21 22  1  0  0  0  0
 22 23  1  0  0  0  0
 22 25  2  0  0  0  0
 23 24  1  0  0  0  0
 25 26  1  0  0  0  0
 25 28  1  0  0  0  0
 26 27  1  0  0  0  0
 28 29  2  0  0  0  0
 29 30  1  0  0  0  0
 31 32  1  0  0  0  0
 32 33  1  0  0  0  0
 32 37  1  0  0  0  0
 33 34  1  0  0  0  0
 34 35  1  0  0  0  0
 35 36  1  0  0  0  0
 36 37  1  0  0  0  0
M  END
$$$$

 OpenBabel12191814062D

 31 32  0  0  0  0  0  0  0  0999 V2000
   -5.0013   -1.2375    0.0000 C   0  0  0  0  0  0  0  0  0  0  0  0
   -4.2868   -0.8250    0.0000 O   0  0  0  0  0  0  0  0  0  0  0  0
   -3.5724   -1.2375    0.0000 C   0  0  0  0  0  0  0  0  0  0  0  0
   -2.8579   -0.8250    0.0000 C   0  0  0  0  0  0  0  0  0  0  0  0
   -2.1434   -1.2375    0.0000 C   0  0  0  0  0  0  0  0  0  0  0  0
   -2.1434   -2.0625    0.0000 C   0  0  0  0  0  0  0  0  0  0  0  0
   -2.8579   -2.4750    0.0000 C   0  0  0  0  0  0  0  0  0  0  0  0
   -3.5724   -2.0625    0.0000 C   0  0  0  0  0  0  0  0  0  0  0  0
   -4.2868   -2.4750    0.0000 O   0  0  0  0  0  0  0  0  0  0  0  0
   -5.0013   -2.0625    0.0000 C   0  0  0  0  0  0  0  0  0  0  0  0
   -1.4289   -2.4750    0.0000 C   0  0  3  0  0  0  0  0  0  0  0  0
   -0.7145   -2.8875    0.0000 C   0  0  0  0  0  0  0  0  0  0  0  0
    0.0000   -2.4750    0.0000 C   0  0  0  0  0  0  0  0  0  0  0  0
    0.7145   -2.8875    0.0000 C   0  0  0  0  0  0  0  0  0  0  0  0
    1.4289   -2.4750    0.0000 N   0  0  0  0  0  0  0  0  0  0  0  0
    1.4289   -1.6500    0.0000 C   0  0  0  0  0  0  0  0  0  0  0  0
    2.1434   -2.8875    0.0000 C   0  0  0  0  0  0  0  0  0  0  0  0
    2.8579   -2.4750    0.0000 C   0  0  0  0  0  0  0  0  0  0  0  0
    3.5724   -2.8875    0.0000 C   0  0  0  0  0  0  0  0  0  0  0  0
    4.2868   -2.4750    0.0000 C   0  0  0  0  0  0  0  0  0  0  0  0
    5.0013   -2.8875    0.0000 C   0  0  0  0  0  0  0  0  0  0  0  0
    5.0013   -3.7125    0.0000 C   0  0  0  0  0  0  0  0  0  0  0  0
    5.7158   -4.1250    0.0000 Cl  0  0  0  0  0  0  0  0  0  0  0  0
    4.2868   -4.1250    0.0000 C   0  0  0  0  0  0  0  0  0  0  0  0
    4.2868   -4.9500    0.0000 Cl  0  0  0  0  0  0  0  0  0  0  0  0
    3.5724   -3.7125    0.0000 C   0  0  0  0  0  0  0  0  0  0  0  0
   -1.8414   -3.1895    0.0000 C   0  0  0  0  0  0  0  0  0  0  0  0
   -2.2539   -3.9039    0.0000 N   0  0  0  0  0  0  0  0  0  0  0  0
   -1.0164   -1.7605    0.0000 C   0  0  0  0  0  0  0  0  0  0  0  0
   -0.1914   -1.7605    0.0000 C   0  0  0  0  0  0  0  0  0  0  0  0
   -1.4289   -1.0461    0.0000 C   0  0  0  0  0  0  0  0  0  0  0  0
  1  2  1  0  0  0  0
  2  3  1  0  0  0  0
  3  4  2  0  0  0  0
  3  8  1  0  0  0  0
  4  5  1  0  0  0  0
  5  6  2  0  0  0  0
  6  7  1  0  0  0  0
  6 11  1  0  0  0  0
  7  8  2  0  0  0  0
  8  9  1  0  0  0  0
  9 10  1  0  0  0  0
 11 12  1  0  0  0  0
 11 27  1  0  0  0  0
 11 29  1  0  0  0  0
 12 13  1  0  0  0  0
 13 14  1  0  0  0  0
 14 15  1  0  0  0  0
 15 16  1  0  0  0  0
 15 17  1  0  0  0  0
 17 18  1  0  0  0  0
 18 19  1  0  0  0  0
 19 20  2  0  0  0  0
 19 26  1  0  0  0  0
 20 21  1  0  0  0  0
 21 22  2  0  0  0  0
 22 23  1  0  0  0  0
 22 24  1  0  0  0  0
 24 25  1  0  0  0  0
 24 26  2  0  0  0  0
 27 28  3  0  0  0  0
 29 30  1  0  0  0  0
 29 31  1  0  0  0  0
M  END
$$$$

 OpenBabel12191814062D

 33 35  0  0  0  0  0  0  0  0999 V2000
   -5.0013   -0.4125    0.0000 C   0  0  0  0  0  0  0  0  0  0  0  0
   -4.2868   -0.8250    0.0000 O   0  0  0  0  0  0  0  0  0  0  0  0
   -4.2868   -1.6500    0.0000 C   0  0  0  0  0  0  0  0  0  0  0  0
   -3.5724   -2.0625    0.0000 C   0  0  0  0  0  0  0  0  0  0  0  0
   -3.5724   -2.8875    0.0000 C   0  0  0  0  0  0  0  0  0  0  0  0
   -4.2868   -3.3000    0.0000 C   0  0  0  0  0  0  0  0  0  0  0  0
   -5.0013   -2.8875    0.0000 C   0  0  0  0  0  0  0  0  0  0  0  0
   -5.0013   -2.0625    0.0000 C   0  0  0  0  0  0  0  0  0  0  0  0
   -5.7158   -1.6500    0.0000 O   0  0  0  0  0  0  0  0  0  0  0  0
   -5.7158   -0.8250    0.0000 C   0  0  0  0  0  0  0  0  0  0  0  0
   -4.2868   -4.1250    0.0000 C   0  0  3  0  0  0  0  0  0  0  0  0
   -4.2868   -4.9500    0.0000 C   0  0  0  0  0  0  0  0  0  0  0  0
   -5.0013   -5.3625    0.0000 C   0  0  0  0  0  0  0  0  0  0  0  0
   -5.0013   -6.1875    0.0000 C   0  0  0  0  0  0  0  0  0  0  0  0
   -5.7158   -6.6000    0.0000 N   0  0  0  0  0  0  0  0  0  0  0  0
   -5.7158   -7.4250    0.0000 C   0  0  0  0  0  0  0  0  0  0  0  0
   -6.4302   -7.8375    0.0000 C   0  0  0  0  0  0  0  0  0  0  0  0
   -6.4302   -8.6625    0.0000 C   0  0  0  0  0  0  0  0  0  0  0  0
   -7.1447   -9.0750    0.0000 C   0  0  0  0  0  0  0  0  0  0  0  0
   -7.8592   -8.6625    0.0000 C   0  0  0  0  0  0  0  0  0  0  0  0
   -7.8592   -7.8375    0.0000 C   0  0  0  0  0  0  0  0  0  0  0  0
   -7.1447   -7.4250    0.0000 C   0  0  0  0  0  0  0  0  0  0  0  0
   -5.0013   -7.8375    0.0000 C   0  0  0  0  0  0  0  0  0  0  0  0
   -4.2868   -7.4250    0.0000 C   0  0  0  0  0  0  0  0  0  0  0  0
   -3.5724   -7.8375    0.0000 C   0  0  0  0  0  0  0  0  0  0  0  0
   -3.5724   -8.6625    0.0000 C   0  0  0  0  0  0  0  0  0  0  0  0
   -4.2868   -9.0750    0.0000 C   0  0  0  0  0  0  0  0  0  0  0  0
   -5.0013   -8.6625    0.0000 C   0  0  0  0  0  0  0  0  0  0  0  0
   -5.1118   -4.1250    0.0000 C   0  0  0  0  0  0  0  0  0  0  0  0
   -5.9368   -4.1250    0.0000 N   0  0  0  0  0  0  0  0  0  0  0  0
   -3.4618   -4.1250    0.0000 C   0  0  0  0  0  0  0  0  0  0  0  0
   -3.0493   -4.8395    0.0000 C   0  0  0  0  0  0  0  0  0  0  0  0
   -3.0493   -3.4105    0.0000 C   0  0  0  0  0  0  0  0  0  0  0  0
  1  2  1  0  0  0  0
  2  3  1  0  0  0  0
  3  4  2  0  0  0  0
  3  8  1  0  0  0  0
  4  5  1  0  0  0  0
  5  6  2  0  0  0  0
  6  7  1  0  0  0  0
  6 11  1  0  0  0  0
  7  8  2  0  0  0  0
  8  9  1  0  0  0  0
  9 10  1  0  0  0  0
 11 12  1  0  0  0  0
 11 29  1  0  0  0  0
 11 31  1  0  0  0  0
 12 13  1  0  0  0  0
 13 14  1  0  0  0  0
 14 15  1  0  0  0  0
 15 16  1  0  0  0  0
 16 17  1  0  0  0  0
 16 23  1  0  0  0  0
 17 18  2  0  0  0  0
 17 22  1  0  0  0  0
 18 19  1  0  0  0  0
 19 20  2  0  0  0  0
 20 21  1  0  0  0  0
 21 22  2  0  0  0  0
 23 24  2  0  0  0  0
 23 28  1  0  0  0  0
 24 25  1  0  0  0  0
 25 26  2  0  0  0  0
 26 27  1  0  0  0  0
 27 28  2  0  0  0  0
 29 30  3  0  0  0  0
 31 32  1  0  0  0  0
 31 33  1  0  0  0  0
M  END
$$$$

 OpenBabel12191814062D

 33 36  0  0  0  0  0  0  0  0999 V2000
   -0.2095    8.5230    0.0000 C   0  0  0  0  0  0  0  0  0  0  0  0
    0.5050    8.1105    0.0000 O   0  0  0  0  0  0  0  0  0  0  0  0
    0.5050    7.2855    0.0000 C   0  0  0  0  0  0  0  0  0  0  0  0
    1.2195    6.8730    0.0000 C   0  0  0  0  0  0  0  0  0  0  0  0
    1.2195    6.0480    0.0000 C   0  0  0  0  0  0  0  0  0  0  0  0
    0.5050    5.6355    0.0000 C   0  0  0  0  0  0  0  0  0  0  0  0
   -0.2095    6.0480    0.0000 C   0  0  0  0  0  0  0  0  0  0  0  0
   -0.2095    6.8730    0.0000 C   0  0  0  0  0  0  0  0  0  0  0  0
   -0.9239    7.2855    0.0000 O   0  0  0  0  0  0  0  0  0  0  0  0
   -0.9239    8.1105    0.0000 C   0  0  0  0  0  0  0  0  0  0  0  0
    0.5050    4.8105    0.0000 C   0  0  3  0  0  0  0  0  0  0  0  0
    0.5050    3.9855    0.0000 C   0  0  0  0  0  0  0  0  0  0  0  0
    1.2195    3.5730    0.0000 C   0  0  0  0  0  0  0  0  0  0  0  0
    1.2195    2.7480    0.0000 C   0  0  0  0  0  0  0  0  0  0  0  0
    1.9339    2.3355    0.0000 N   0  0  0  0  0  0  0  0  0  0  0  0
    1.9339    1.5105    0.0000 C   0  0  0  0  0  0  0  0  0  0  0  0
    2.6014    1.0256    0.0000 C   0  0  0  0  0  0  0  0  0  0  0  0
    3.4084    1.1971    0.0000 C   0  0  0  0  0  0  0  0  0  0  0  0
    3.9604    0.5840    0.0000 C   0  0  0  0  0  0  0  0  0  0  0  0
    3.7054   -0.2006    0.0000 C   0  0  0  0  0  0  0  0  0  0  0  0
    2.8985   -0.3721    0.0000 C   0  0  0  0  0  0  0  0  0  0  0  0
    2.3464    0.2410    0.0000 C   0  0  0  0  0  0  0  0  0  0  0  0
    1.5214    0.2410    0.0000 C   0  0  0  0  0  0  0  0  0  0  0  0
    0.9694   -0.3721    0.0000 C   0  0  0  0  0  0  0  0  0  0  0  0
    0.1624   -0.2006    0.0000 C   0  0  0  0  0  0  0  0  0  0  0  0
   -0.0925    0.5840    0.0000 C   0  0  0  0  0  0  0  0  0  0  0  0
    0.4595    1.1971    0.0000 C   0  0  0  0  0  0  0  0  0  0  0  0
    1.2665    1.0256    0.0000 C   0  0  0  0  0  0  0  0  0  0  0  0
   -0.3200    4.8105    0.0000 C   0  0  0  0  0  0  0  0  0  0  0  0
   -1.1450    4.8105    0.0000 N   0  0  0  0  0  0  0  0  0  0  0  0
    1.3300    4.8105    0.0000 C   0  0  0  0  0  0  0  0  0  0  0  0
    1.7425    4.0960    0.0000 C   0  0  0  0  0  0  0  0  0  0  0  0
    1.7425    5.5250    0.0000 C   0  0  0  0  0  0  0  0  0  0  0  0
  1  2  1  0  0  0  0
  2  3  1  0  0  0  0
  3  4  2  0  0  0  0
  3  8  1  0  0  0  0
  4  5  1  0  0  0  0
  5  6  2  0  0  0  0
  6  7  1  0  0  0  0
  6 11  1  0  0  0  0
  7  8  2  0  0  0  0
  8  9  1  0  0  0  0
  9 10  1  0  0  0  0
 11 12  1  0  0  0  0
 11 29  1  0  0  0  0
 11 31  1  0  0  0  0
 12 13  1  0  0  0  0
 13 14  1  0  0  0  0
 14 15  1  0  0  0  0
 15 16  1  0  0  0  0
 16 17  1  0  0  0  0
 16 28  1  0  0  0  0
 17 18  2  0  0  0  0
 17 22  1  0  0  0  0
 18 19  1  0  0  0  0
 19 20  2  0  0  0  0
 20 21  1  0  0  0  0
 21 22  2  0  0  0  0
 22 23  1  0  0  0  0
 23 24  2  0  0  0  0
 23 28  1  0  0  0  0
 24 25  1  0  0  0  0
 25 26  2  0  0  0  0
 26 27  1  0  0  0  0
 27 28  2  0  0  0  0
 29 30  3  0  0  0  0
 31 32  1  0  0  0  0
 31 33  1  0  0  0  0
M  END
$$$$

 OpenBabel12191814062D

 35 38  0  0  0  0  0  0  0  0999 V2000
    1.6603    7.3445    0.0000 C   0  0  0  0  0  0  0  0  0  0  0  0
    2.3747    6.9320    0.0000 O   0  0  0  0  0  0  0  0  0  0  0  0
    2.3747    6.1070    0.0000 C   0  0  0  0  0  0  0  0  0  0  0  0
    3.0892    5.6945    0.0000 C   0  0  0  0  0  0  0  0  0  0  0  0
    3.0892    4.8695    0.0000 C   0  0  0  0  0  0  0  0  0  0  0  0
    2.3747    4.4570    0.0000 C   0  0  0  0  0  0  0  0  0  0  0  0
    1.6603    4.8695    0.0000 C   0  0  0  0  0  0  0  0  0  0  0  0
    1.6603    5.6945    0.0000 C   0  0  0  0  0  0  0  0  0  0  0  0
    0.9458    6.1070    0.0000 O   0  0  0  0  0  0  0  0  0  0  0  0
    0.9458    6.9320    0.0000 C   0  0  0  0  0  0  0  0  0  0  0  0
    2.3747    3.6320    0.0000 C   0  0  3  0  0  0  0  0  0  0  0  0
    2.3747    2.8070    0.0000 C   0  0  0  0  0  0  0  0  0  0  0  0
    3.0892    2.3945    0.0000 C   0  0  0  0  0  0  0  0  0  0  0  0
    3.0892    1.5695    0.0000 C   0  0  0  0  0  0  0  0  0  0  0  0
    3.8037    1.1570    0.0000 N   0  0  0  0  0  0  0  0  0  0  0  0
    3.8037    0.3320    0.0000 C   0  0  0  0  0  0  0  0  0  0  0  0
    4.5470   -0.0260    0.0000 C   0  0  0  0  0  0  0  0  0  0  0  0
    5.1517    0.5352    0.0000 C   0  0  0  0  0  0  0  0  0  0  0  0
    5.9401    0.2920    0.0000 C   0  0  0  0  0  0  0  0  0  0  0  0
    6.1237   -0.5123    0.0000 C   0  0  0  0  0  0  0  0  0  0  0  0
    5.5189   -1.0735    0.0000 C   0  0  0  0  0  0  0  0  0  0  0  0
    4.7305   -0.8303    0.0000 C   0  0  0  0  0  0  0  0  0  0  0  0
    4.2162   -1.4753    0.0000 C   0  0  0  0  0  0  0  0  0  0  0  0
    3.3912   -1.4753    0.0000 C   0  0  0  0  0  0  0  0  0  0  0  0
    2.8768   -0.8303    0.0000 C   0  0  0  0  0  0  0  0  0  0  0  0
    2.0884   -1.0735    0.0000 C   0  0  0  0  0  0  0  0  0  0  0  0
    1.4837   -0.5123    0.0000 C   0  0  0  0  0  0  0  0  0  0  0  0
    1.6673    0.2920    0.0000 C   0  0  0  0  0  0  0  0  0  0  0  0
    2.4556    0.5352    0.0000 C   0  0  0  0  0  0  0  0  0  0  0  0
    3.0604   -0.0260    0.0000 C   0  0  0  0  0  0  0  0  0  0  0  0
    1.5497    3.6320    0.0000 C   0  0  0  0  0  0  0  0  0  0  0  0
    0.7247    3.6320    0.0000 N   0  0  0  0  0  0  0  0  0  0  0  0
    3.1997    3.6320    0.0000 C   0  0  0  0  0  0  0  0  0  0  0  0
    3.6122    2.9175    0.0000 C   0  0  0  0  0  0  0  0  0  0  0  0
    3.6122    4.3465    0.0000 C   0  0  0  0  0  0  0  0  0  0  0  0
  1  2  1  0  0  0  0
  2  3  1  0  0  0  0
  3  4  2  0  0  0  0
  3  8  1  0  0  0  0
  4  5  1  0  0  0  0
  5  6  2  0  0  0  0
  6  7  1  0  0  0  0
  6 11  1  0  0  0  0
  7  8  2  0  0  0  0
  8  9  1  0  0  0  0
  9 10  1  0  0  0  0
 11 12  1  0  0  0  0
 11 31  1  0  0  0  0
 11 33  1  0  0  0  0
 12 13  1  0  0  0  0
 13 14  1  0  0  0  0
 14 15  1  0  0  0  0
 15 16  1  0  0  0  0
 16 17  1  0  0  0  0
 16 30  1  0  0  0  0
 17 18  2  0  0  0  0
 17 22  1  0  0  0  0
 18 19  1  0  0  0  0
 19 20  2  0  0  0  0
 20 21  1  0  0  0  0
 21 22  2  0  0  0  0
 22 23  1  0  0  0  0
 23 24  1  0  0  0  0
 24 25  1  0  0  0  0
 25 26  2  0  0  0  0
 25 30  1  0  0  0  0
 26 27  1  0  0  0  0
 27 28  2  0  0  0  0
 28 29  1  0  0  0  0
 29 30  2  0  0  0  0
 31 32  3  0  0  0  0
 33 34  1  0  0  0  0
 33 35  1  0  0  0  0
M  END
$$$$

 OpenBabel12191814062D

 38 42  0  0  0  0  0  0  0  0999 V2000
    1.6603    7.3445    0.0000 C   0  0  0  0  0  0  0  0  0  0  0  0
    2.3747    6.9320    0.0000 O   0  0  0  0  0  0  0  0  0  0  0  0
    2.3747    6.1070    0.0000 C   0  0  0  0  0  0  0  0  0  0  0  0
    3.0892    5.6945    0.0000 C   0  0  0  0  0  0  0  0  0  0  0  0
    3.0892    4.8695    0.0000 C   0  0  0  0  0  0  0  0  0  0  0  0
    2.3747    4.4570    0.0000 C   0  0  0  0  0  0  0  0  0  0  0  0
    1.6603    4.8695    0.0000 C   0  0  0  0  0  0  0  0  0  0  0  0
    1.6603    5.6945    0.0000 C   0  0  0  0  0  0  0  0  0  0  0  0
    0.9458    6.1070    0.0000 O   0  0  0  0  0  0  0  0  0  0  0  0
    0.9458    6.9320    0.0000 C   0  0  0  0  0  0  0  0  0  0  0  0
    2.3747    3.6320    0.0000 C   0  0  3  0  0  0  0  0  0  0  0  0
    2.3747    2.8070    0.0000 C   0  0  0  0  0  0  0  0  0  0  0  0
    3.0892    2.3945    0.0000 C   0  0  0  0  0  0  0  0  0  0  0  0
    3.0892    1.5695    0.0000 C   0  0  0  0  0  0  0  0  0  0  0  0
    3.8037    1.1570    0.0000 N   0  0  0  0  0  0  0  0  0  0  0  0
    3.8037    0.3320    0.0000 C   0  0  0  0  0  0  0  0  0  0  0  0
    4.5470   -0.0260    0.0000 C   0  0  0  0  0  0  0  0  0  0  0  0
    5.1517    0.5352    0.0000 C   0  0  0  0  0  0  0  0  0  0  0  0
    5.9401    0.2920    0.0000 C   0  0  0  0  0  0  0  0  0  0  0  0
    6.1237   -0.5123    0.0000 C   0  0  0  0  0  0  0  0  0  0  0  0
    5.5189   -1.0735    0.0000 C   0  0  0  0  0  0  0  0  0  0  0  0
    4.7305   -0.8303    0.0000 C   0  0  0  0  0  0  0  0  0  0  0  0
    4.2162   -1.4753    0.0000 C   0  0  0  0  0  0  0  0  0  0  0  0
    3.3912   -1.4753    0.0000 C   0  0  0  0  0  0  0  0  0  0  0  0
    2.8768   -0.8303    0.0000 C   0  0  0  0  0  0  0  0  0  0  0  0
    2.0884   -1.0735    0.0000 C   0  0  0  0  0  0  0  0  0  0  0  0
    1.4837   -0.5123    0.0000 C   0  0  0  0  0  0  0  0  0  0  0  0
    1.6673    0.2920    0.0000 C   0  0  0  0  0  0  0  0  0  0  0  0
    2.4556    0.5352    0.0000 C   0  0  0  0  0  0  0  0  0  0  0  0
    3.0604   -0.0260    0.0000 C   0  0  0  0  0  0  0  0  0  0  0  0
    1.5497    3.6320    0.0000 C   0  0  0  0  0  0  0  0  0  0  0  0
    0.7247    3.6320    0.0000 N   0  0  0  0  0  0  0  0  0  0  0  0
    3.1997    3.6320    0.0000 C   0  0  0  0  0  0  0  0  0  0  0  0
    3.6122    4.3465    0.0000 C   0  0  0  0  0  0  0  0  0  0  0  0
    4.4372    4.3465    0.0000 C   0  0  0  0  0  0  0  0  0  0  0  0
    4.8497    3.6320    0.0000 C   0  0  0  0  0  0  0  0  0  0  0  0
    4.4372    2.9175    0.0000 C   0  0  0  0  0  0  0  0  0  0  0  0
    3.6122    2.9175    0.0000 C   0  0  0  0  0  0  0  0  0  0  0  0
  1  2  1  0  0  0  0
  2  3  1  0  0  0  0
  3  4  2  0  0  0  0
  3  8  1  0  0  0  0
  4  5  1  0  0  0  0
  5  6  2  0  0  0  0
  6  7  1  0  0  0  0
  6 11  1  0  0  0  0
  7  8  2  0  0  0  0
  8  9  1  0  0  0  0
  9 10  1  0  0  0  0
 11 12  1  0  0  0  0
 11 31  1  0  0  0  0
 11 33  1  0  0  0  0
 12 13  1  0  0  0  0
 13 14  1  0  0  0  0
 14 15  1  0  0  0  0
 15 16  1  0  0  0  0
 16 17  1  0  0  0  0
 16 30  1  0  0  0  0
 17 18  2  0  0  0  0
 17 22  1  0  0  0  0
 18 19  1  0  0  0  0
 19 20  2  0  0  0  0
 20 21  1  0  0  0  0
 21 22  2  0  0  0  0
 22 23  1  0  0  0  0
 23 24  1  0  0  0  0
 24 25  1  0  0  0  0
 25 26  2  0  0  0  0
 25 30  1  0  0  0  0
 26 27  1  0  0  0  0
 27 28  2  0  0  0  0
 28 29  1  0  0  0  0
 29 30  2  0  0  0  0
 31 32  3  0  0  0  0
 33 34  2  0  0  0  0
 33 38  1  0  0  0  0
 34 35  1  0  0  0  0
 35 36  2  0  0  0  0
 36 37  1  0  0  0  0
 37 38  2  0  0  0  0
M  END
$$$$

 OpenBabel12191814062D

 35 38  0  0  0  0  0  0  0  0999 V2000
   -3.5724    6.1875    0.0000 C   0  0  0  0  0  0  0  0  0  0  0  0
   -2.8579    6.6000    0.0000 O   0  0  0  0  0  0  0  0  0  0  0  0
   -2.1434    6.1875    0.0000 C   0  0  0  0  0  0  0  0  0  0  0  0
   -1.4289    6.6000    0.0000 C   0  0  0  0  0  0  0  0  0  0  0  0
   -0.7145    6.1875    0.0000 C   0  0  0  0  0  0  0  0  0  0  0  0
   -0.7145    5.3625    0.0000 C   0  0  0  0  0  0  0  0  0  0  0  0
   -1.4289    4.9500    0.0000 C   0  0  0  0  0  0  0  0  0  0  0  0
   -2.1434    5.3625    0.0000 C   0  0  0  0  0  0  0  0  0  0  0  0
   -2.8579    4.9500    0.0000 O   0  0  0  0  0  0  0  0  0  0  0  0
   -3.5724    5.3625    0.0000 C   0  0  0  0  0  0  0  0  0  0  0  0
   -0.0000    4.9500    0.0000 C   0  0  3  0  0  0  0  0  0  0  0  0
    0.7145    4.5375    0.0000 C   0  0  0  0  0  0  0  0  0  0  0  0
    0.7145    3.7125    0.0000 C   0  0  0  0  0  0  0  0  0  0  0  0
    1.4289    3.3000    0.0000 C   0  0  0  0  0  0  0  0  0  0  0  0
    1.4289    2.4750    0.0000 N   0  0  0  0  0  0  0  0  0  0  0  0
    2.1434    2.0625    0.0000 C   0  0  0  0  0  0  0  0  0  0  0  0
    2.1434    1.2375    0.0000 C   0  0  0  0  0  0  0  0  0  0  0  0
    2.8579    0.8250    0.0000 C   0  0  0  0  0  0  0  0  0  0  0  0
    3.5724    1.2375    0.0000 C   0  0  0  0  0  0  0  0  0  0  0  0
    4.2868    0.8250    0.0000 C   0  0  0  0  0  0  0  0  0  0  0  0
    4.2868   -0.0000    0.0000 C   0  0  0  0  0  0  0  0  0  0  0  0
    3.5724   -0.4125    0.0000 C   0  0  0  0  0  0  0  0  0  0  0  0
    2.8579    0.0000    0.0000 C   0  0  0  0  0  0  0  0  0  0  0  0
    2.1434   -0.4125    0.0000 C   0  0  0  0  0  0  0  0  0  0  0  0
    1.4289    0.0000    0.0000 C   0  0  0  0  0  0  0  0  0  0  0  0
    0.7145   -0.4125    0.0000 C   0  0  0  0  0  0  0  0  0  0  0  0
    0.0000    0.0000    0.0000 C   0  0  0  0  0  0  0  0  0  0  0  0
    0.0000    0.8250    0.0000 C   0  0  0  0  0  0  0  0  0  0  0  0
    0.7145    1.2375    0.0000 C   0  0  0  0  0  0  0  0  0  0  0  0
    1.4289    0.8250    0.0000 C   0  0  0  0  0  0  0  0  0  0  0  0
   -0.4125    4.2355    0.0000 C   0  0  0  0  0  0  0  0  0  0  0  0
   -0.8250    3.5211    0.0000 N   0  0  0  0  0  0  0  0  0  0  0  0
    0.4125    5.6645    0.0000 C   0  0  0  0  0  0  0  0  0  0  0  0
    1.2375    5.6645    0.0000 C   0  0  0  0  0  0  0  0  0  0  0  0
   -0.0000    6.3789    0.0000 C   0  0  0  0  0  0  0  0  0  0  0  0
  1  2  1  0  0  0  0
  2  3  1  0  0  0  0
  3  4  2  0  0  0  0
  3  8  1  0  0  0  0
  4  5  1  0  0  0  0
  5  6  2  0  0  0  0
  6  7  1  0  0  0  0
  6 11  1  0  0  0  0
  7  8  2  0  0  0  0
  8  9  1  0  0  0  0
  9 10  1  0  0  0  0
 11 12  1  0  0  0  0
 11 31  1  0  0  0  0
 11 33  1  0  0  0  0
 12 13  1  0  0  0  0
 13 14  1  0  0  0  0
 14 15  1  0  0  0  0
 15 16  1  0  0  0  0
 16 17  1  0  0  0  0
 17 18  2  0  0  0  0
 17 30  1  0  0  0  0
 18 19  1  0  0  0  0
 18 23  1  0  0  0  0
 19 20  2  0  0  0  0
 20 21  1  0  0  0  0
 21 22  2  0  0  0  0
 22 23  1  0  0  0  0
 23 24  2  0  0  0  0
 24 25  1  0  0  0  0
 25 26  2  0  0  0  0
 25 30  1  0  0  0  0
 26 27  1  0  0  0  0
 27 28  2  0  0  0  0
 28 29  1  0  0  0  0
 29 30  2  0  0  0  0
 31 32  3  0  0  0  0
 33 34  1  0  0  0  0
 33 35  1  0  0  0  0
M  END
$$$$

 OpenBabel12191814062D

 32 35  0  0  0  0  0  0  0  0999 V2000
   -4.2868   -2.4750    0.0000 C   0  0  0  0  0  0  0  0  0  0  0  0
   -3.5724   -2.8875    0.0000 O   0  0  0  0  0  0  0  0  0  0  0  0
   -3.5724   -3.7125    0.0000 C   0  0  0  0  0  0  0  0  0  0  0  0
   -2.8579   -4.1250    0.0000 C   0  0  0  0  0  0  0  0  0  0  0  0
   -2.8579   -4.9500    0.0000 C   0  0  0  0  0  0  0  0  0  0  0  0
   -3.5724   -5.3625    0.0000 C   0  0  0  0  0  0  0  0  0  0  0  0
   -4.2868   -4.9500    0.0000 C   0  0  0  0  0  0  0  0  0  0  0  0
   -4.2868   -4.1250    0.0000 C   0  0  0  0  0  0  0  0  0  0  0  0
   -5.0013   -3.7125    0.0000 O   0  0  0  0  0  0  0  0  0  0  0  0
   -5.0013   -2.8875    0.0000 C   0  0  0  0  0  0  0  0  0  0  0  0
   -3.5724   -6.1875    0.0000 C   0  0  3  0  0  0  0  0  0  0  0  0
   -4.2868   -6.6000    0.0000 O   0  0  0  0  0  0  0  0  0  0  0  0
   -2.8579   -6.6000    0.0000 C   0  0  0  0  0  0  0  0  0  0  0  0
   -2.8579   -7.4250    0.0000 N   0  0  0  0  0  0  0  0  0  0  0  0
   -2.1434   -7.8375    0.0000 C   0  0  0  0  0  0  0  0  0  0  0  0
   -2.1434   -8.6625    0.0000 C   0  0  0  0  0  0  0  0  0  0  0  0
   -2.8579   -9.0750    0.0000 N   0  0  0  0  0  0  0  0  0  0  0  0
   -3.5724   -8.6625    0.0000 C   0  0  0  0  0  0  0  0  0  0  0  0
   -3.5724   -7.8375    0.0000 C   0  0  0  0  0  0  0  0  0  0  0  0
   -2.8579   -9.9000    0.0000 C   0  0  0  0  0  0  0  0  0  0  0  0
   -3.5724  -10.3125    0.0000 C   0  0  0  0  0  0  0  0  0  0  0  0
   -3.5724  -11.1375    0.0000 C   0  0  0  0  0  0  0  0  0  0  0  0
   -4.2868  -11.5500    0.0000 C   0  0  0  0  0  0  0  0  0  0  0  0
   -5.0013  -11.1375    0.0000 C   0  0  0  0  0  0  0  0  0  0  0  0
   -5.0013  -10.3125    0.0000 C   0  0  0  0  0  0  0  0  0  0  0  0
   -4.2868   -9.9000    0.0000 C   0  0  0  0  0  0  0  0  0  0  0  0
   -2.1434  -10.3125    0.0000 C   0  0  0  0  0  0  0  0  0  0  0  0
   -1.4289   -9.9000    0.0000 C   0  0  0  0  0  0  0  0  0  0  0  0
   -0.7145  -10.3125    0.0000 C   0  0  0  0  0  0  0  0  0  0  0  0
   -0.7145  -11.1375    0.0000 C   0  0  0  0  0  0  0  0  0  0  0  0
   -1.4289  -11.5500    0.0000 C   0  0  0  0  0  0  0  0  0  0  0  0
   -2.1434  -11.1375    0.0000 C   0  0  0  0  0  0  0  0  0  0  0  0
  1  2  1  0  0  0  0
  2  3  1  0  0  0  0
  3  4  2  0  0  0  0
  3  8  1  0  0  0  0
  4  5  1  0  0  0  0
  5  6  2  0  0  0  0
  6  7  1  0  0  0  0
  6 11  1  0  0  0  0
  7  8  2  0  0  0  0
  8  9  1  0  0  0  0
  9 10  1  0  0  0  0
 11 12  1  0  0  0  0
 11 13  1  0  0  0  0
 13 14  1  0  0  0  0
 14 15  1  0  0  0  0
 14 19  1  0  0  0  0
 15 16  1  0  0  0  0
 16 17  1  0  0  0  0
 17 18  1  0  0  0  0
 17 20  1  0  0  0  0
 18 19  1  0  0  0  0
 20 21  1  0  0  0  0
 20 27  1  0  0  0  0
 21 22  2  0  0  0  0
 21 26  1  0  0  0  0
 22 23  1  0  0  0  0
 23 24  2  0  0  0  0
 24 25  1  0  0  0  0
 25 26  2  0  0  0  0
 27 28  2  0  0  0  0
 27 32  1  0  0  0  0
 28 29  1  0  0  0  0
 29 30  2  0  0  0  0
 30 31  1  0  0  0  0
 31 32  2  0  0  0  0
M  END
$$$$

 OpenBabel12191814062D

 29 31  0  0  0  0  0  0  0  0999 V2000
   -2.1434   -3.7125    0.0000 C   0  0  0  0  0  0  0  0  0  0  0  0
   -2.1434   -2.8875    0.0000 O   0  0  0  0  0  0  0  0  0  0  0  0
   -1.4289   -2.4750    0.0000 C   0  0  0  0  0  0  0  0  0  0  0  0
   -1.4289   -1.6500    0.0000 C   0  0  0  0  0  0  0  0  0  0  0  0
   -0.7145   -1.2375    0.0000 C   0  0  0  0  0  0  0  0  0  0  0  0
    0.0000   -1.6500    0.0000 C   0  0  0  0  0  0  0  0  0  0  0  0
    0.0000   -2.4750    0.0000 C   0  0  0  0  0  0  0  0  0  0  0  0
   -0.7145   -2.8875    0.0000 C   0  0  0  0  0  0  0  0  0  0  0  0
   -0.7145   -3.7125    0.0000 O   0  0  0  0  0  0  0  0  0  0  0  0
   -1.4289   -4.1250    0.0000 C   0  0  0  0  0  0  0  0  0  0  0  0
    0.7145   -1.2375    0.0000 C   0  0  0  0  0  0  0  0  0  0  0  0
    0.7145   -0.4125    0.0000 C   0  0  0  0  0  0  0  0  0  0  0  0
    1.4289    0.0000    0.0000 C   0  0  0  0  0  0  0  0  0  0  0  0
    1.4289    0.8250    0.0000 O   0  0  0  0  0  0  0  0  0  0  0  0
    2.1434   -0.4125    0.0000 C   0  0  0  0  0  0  0  0  0  0  0  0
    2.8579    0.0000    0.0000 C   0  0  0  0  0  0  0  0  0  0  0  0
    2.8579    0.8250    0.0000 O   0  0  0  0  0  0  0  0  0  0  0  0
    3.5724    1.2375    0.0000 C   0  0  0  0  0  0  0  0  0  0  0  0
    3.5724   -0.4125    0.0000 C   0  0  0  0  0  0  0  0  0  0  0  0
    4.2868   -0.0000    0.0000 O   0  0  0  0  0  0  0  0  0  0  0  0
    4.2868    0.8250    0.0000 C   0  0  0  0  0  0  0  0  0  0  0  0
    3.5724   -1.2375    0.0000 C   0  0  0  0  0  0  0  0  0  0  0  0
    4.2868   -1.6500    0.0000 O   0  0  0  0  0  0  0  0  0  0  0  0
    4.2868   -2.4750    0.0000 C   0  0  0  0  0  0  0  0  0  0  0  0
    2.8579   -1.6500    0.0000 C   0  0  0  0  0  0  0  0  0  0  0  0
    2.8579   -2.4750    0.0000 O   0  0  0  0  0  0  0  0  0  0  0  0
    2.1434   -2.8875    0.0000 C   0  0  0  0  0  0  0  0  0  0  0  0
    2.1434   -1.2375    0.0000 C   0  0  0  0  0  0  0  0  0  0  0  0
    1.4289   -1.6500    0.0000 O   0  0  0  0  0  0  0  0  0  0  0  0
  1  2  1  0  0  0  0
  2  3  1  0  0  0  0
  3  4  2  0  0  0  0
  3  8  1  0  0  0  0
  4  5  1  0  0  0  0
  5  6  2  0  0  0  0
  6  7  1  0  0  0  0
  6 11  1  0  0  0  0
  7  8  2  0  0  0  0
  8  9  1  0  0  0  0
  9 10  1  0  0  0  0
 11 12  2  0  0  0  0
 11 29  1  0  0  0  0
 12 13  1  0  0  0  0
 13 14  2  0  0  0  0
 13 15  1  0  0  0  0
 15 16  2  0  0  0  0
 15 28  1  0  0  0  0
 16 17  1  0  0  0  0
 16 19  1  0  0  0  0
 17 18  1  0  0  0  0
 19 20  1  0  0  0  0
 19 22  2  0  0  0  0
 20 21  1  0  0  0  0
 22 23  1  0  0  0  0
 22 25  1  0  0  0  0
 23 24  1  0  0  0  0
 25 26  1  0  0  0  0
 25 28  2  0  0  0  0
 26 27  1  0  0  0  0
 28 29  1  0  0  0  0
M  END
$$$$

 OpenBabel12191814062D

 29 31  0  0  0  0  0  0  0  0999 V2000
   -2.1434   -3.7125    0.0000 C   0  0  0  0  0  0  0  0  0  0  0  0
   -2.1434   -2.8875    0.0000 O   0  0  0  0  0  0  0  0  0  0  0  0
   -1.4289   -2.4750    0.0000 C   0  0  0  0  0  0  0  0  0  0  0  0
   -1.4289   -1.6500    0.0000 C   0  0  0  0  0  0  0  0  0  0  0  0
   -0.7145   -1.2375    0.0000 C   0  0  0  0  0  0  0  0  0  0  0  0
    0.0000   -1.6500    0.0000 C   0  0  0  0  0  0  0  0  0  0  0  0
    0.0000   -2.4750    0.0000 C   0  0  0  0  0  0  0  0  0  0  0  0
   -0.7145   -2.8875    0.0000 C   0  0  0  0  0  0  0  0  0  0  0  0
   -0.7145   -3.7125    0.0000 O   0  0  0  0  0  0  0  0  0  0  0  0
   -1.4289   -4.1250    0.0000 C   0  0  0  0  0  0  0  0  0  0  0  0
    0.7145   -1.2375    0.0000 C   0  0  0  0  0  0  0  0  0  0  0  0
    0.7145   -0.4125    0.0000 C   0  0  0  0  0  0  0  0  0  0  0  0
    1.4289    0.0000    0.0000 C   0  0  0  0  0  0  0  0  0  0  0  0
    1.4289    0.8250    0.0000 O   0  0  0  0  0  0  0  0  0  0  0  0
    2.1434   -0.4125    0.0000 C   0  0  0  0  0  0  0  0  0  0  0  0
    2.8579    0.0000    0.0000 C   0  0  0  0  0  0  0  0  0  0  0  0
    2.8579    0.8250    0.0000 O   0  0  0  0  0  0  0  0  0  0  0  0
    3.5724    1.2375    0.0000 C   0  0  0  0  0  0  0  0  0  0  0  0
    3.5724   -0.4125    0.0000 C   0  0  0  0  0  0  0  0  0  0  0  0
    4.2868   -0.0000    0.0000 O   0  0  0  0  0  0  0  0  0  0  0  0
    4.2868    0.8250    0.0000 C   0  0  0  0  0  0  0  0  0  0  0  0
    3.5724   -1.2375    0.0000 C   0  0  0  0  0  0  0  0  0  0  0  0
    4.2868   -1.6500    0.0000 O   0  0  0  0  0  0  0  0  0  0  0  0
    4.2868   -2.4750    0.0000 C   0  0  0  0  0  0  0  0  0  0  0  0
    2.8579   -1.6500    0.0000 C   0  0  0  0  0  0  0  0  0  0  0  0
    2.8579   -2.4750    0.0000 O   0  0  0  0  0  0  0  0  0  0  0  0
    2.1434   -2.8875    0.0000 C   0  0  0  0  0  0  0  0  0  0  0  0
    2.1434   -1.2375    0.0000 C   0  0  0  0  0  0  0  0  0  0  0  0
    1.4289   -1.6500    0.0000 O   0  0  0  0  0  0  0  0  0  0  0  0
  1  2  1  0  0  0  0
  2  3  1  0  0  0  0
  3  4  2  0  0  0  0
  3  8  1  0  0  0  0
  4  5  1  0  0  0  0
  5  6  2  0  0  0  0
  6  7  1  0  0  0  0
  6 11  1  0  0  0  0
  7  8  2  0  0  0  0
  8  9  1  0  0  0  0
  9 10  1  0  0  0  0
 11 12  2  0  0  0  0
 11 29  1  0  0  0  0
 12 13  1  0  0  0  0
 13 14  2  0  0  0  0
 13 15  1  0  0  0  0
 15 16  2  0  0  0  0
 15 28  1  0  0  0  0
 16 17  1  0  0  0  0
 16 19  1  0  0  0  0
 17 18  1  0  0  0  0
 19 20  1  0  0  0  0
 19 22  2  0  0  0  0
 20 21  1  0  0  0  0
 22 23  1  0  0  0  0
 22 25  1  0  0  0  0
 23 24  1  0  0  0  0
 25 26  1  0  0  0  0
 25 28  2  0  0  0  0
 26 27  1  0  0  0  0
 28 29  1  0  0  0  0
M  END
$$$$

 OpenBabel12191814062D

 27 29  0  0  0  0  0  0  0  0999 V2000
   -2.1434   -3.7125    0.0000 C   0  0  0  0  0  0  0  0  0  0  0  0
   -2.1434   -2.8875    0.0000 O   0  0  0  0  0  0  0  0  0  0  0  0
   -1.4289   -2.4750    0.0000 C   0  0  0  0  0  0  0  0  0  0  0  0
   -1.4289   -1.6500    0.0000 C   0  0  0  0  0  0  0  0  0  0  0  0
   -0.7145   -1.2375    0.0000 C   0  0  0  0  0  0  0  0  0  0  0  0
    0.0000   -1.6500    0.0000 C   0  0  0  0  0  0  0  0  0  0  0  0
    0.0000   -2.4750    0.0000 C   0  0  0  0  0  0  0  0  0  0  0  0
   -0.7145   -2.8875    0.0000 C   0  0  0  0  0  0  0  0  0  0  0  0
   -0.7145   -3.7125    0.0000 O   0  0  0  0  0  0  0  0  0  0  0  0
   -1.4289   -4.1250    0.0000 C   0  0  0  0  0  0  0  0  0  0  0  0
    0.7145   -1.2375    0.0000 C   0  0  0  0  0  0  0  0  0  0  0  0
    0.7145   -0.4125    0.0000 C   0  0  0  0  0  0  0  0  0  0  0  0
    1.4289    0.0000    0.0000 C   0  0  0  0  0  0  0  0  0  0  0  0
    1.4289    0.8250    0.0000 O   0  0  0  0  0  0  0  0  0  0  0  0
    2.1434   -0.4125    0.0000 C   0  0  0  0  0  0  0  0  0  0  0  0
    2.8579    0.0000    0.0000 C   0  0  0  0  0  0  0  0  0  0  0  0
    2.8579    0.8250    0.0000 O   0  0  0  0  0  0  0  0  0  0  0  0
    3.5724    1.2375    0.0000 C   0  0  0  0  0  0  0  0  0  0  0  0
    3.5724   -0.4125    0.0000 C   0  0  0  0  0  0  0  0  0  0  0  0
    4.2868   -0.0000    0.0000 O   0  0  0  0  0  0  0  0  0  0  0  0
    4.2868    0.8250    0.0000 C   0  0  0  0  0  0  0  0  0  0  0  0
    3.5724   -1.2375    0.0000 C   0  0  0  0  0  0  0  0  0  0  0  0
    4.2868   -1.6500    0.0000 O   0  0  0  0  0  0  0  0  0  0  0  0
    4.2868   -2.4750    0.0000 C   0  0  0  0  0  0  0  0  0  0  0  0
    2.8579   -1.6500    0.0000 C   0  0  0  0  0  0  0  0  0  0  0  0
    2.1434   -1.2375    0.0000 C   0  0  0  0  0  0  0  0  0  0  0  0
    1.4289   -1.6500    0.0000 O   0  0  0  0  0  0  0  0  0  0  0  0
  1  2  1  0  0  0  0
  2  3  1  0  0  0  0
  3  4  2  0  0  0  0
  3  8  1  0  0  0  0
  4  5  1  0  0  0  0
  5  6  2  0  0  0  0
  6  7  1  0  0  0  0
  6 11  1  0  0  0  0
  7  8  2  0  0  0  0
  8  9  1  0  0  0  0
  9 10  1  0  0  0  0
 11 12  2  0  0  0  0
 11 27  1  0  0  0  0
 12 13  1  0  0  0  0
 13 14  2  0  0  0  0
 13 15  1  0  0  0  0
 15 16  2  0  0  0  0
 15 26  1  0  0  0  0
 16 17  1  0  0  0  0
 16 19  1  0  0  0  0
 17 18  1  0  0  0  0
 19 20  1  0  0  0  0
 19 22  2  0  0  0  0
 20 21  1  0  0  0  0
 22 23  1  0  0  0  0
 22 25  1  0  0  0  0
 23 24  1  0  0  0  0
 25 26  2  0  0  0  0
 26 27  1  0  0  0  0
M  END
$$$$

 OpenBabel12191814062D

 21 23  0  0  0  0  0  0  0  0999 V2000
   -2.1434   -3.7125    0.0000 C   0  0  0  0  0  0  0  0  0  0  0  0
   -2.1434   -2.8875    0.0000 O   0  0  0  0  0  0  0  0  0  0  0  0
   -1.4289   -2.4750    0.0000 C   0  0  0  0  0  0  0  0  0  0  0  0
   -1.4289   -1.6500    0.0000 C   0  0  0  0  0  0  0  0  0  0  0  0
   -0.7145   -1.2375    0.0000 C   0  0  0  0  0  0  0  0  0  0  0  0
    0.0000   -1.6500    0.0000 C   0  0  0  0  0  0  0  0  0  0  0  0
    0.0000   -2.4750    0.0000 C   0  0  0  0  0  0  0  0  0  0  0  0
   -0.7145   -2.8875    0.0000 C   0  0  0  0  0  0  0  0  0  0  0  0
   -0.7145   -3.7125    0.0000 O   0  0  0  0  0  0  0  0  0  0  0  0
   -1.4289   -4.1250    0.0000 C   0  0  0  0  0  0  0  0  0  0  0  0
    0.7145   -1.2375    0.0000 C   0  0  0  0  0  0  0  0  0  0  0  0
    0.7145   -0.4125    0.0000 C   0  0  0  0  0  0  0  0  0  0  0  0
    1.4289    0.0000    0.0000 C   0  0  0  0  0  0  0  0  0  0  0  0
    1.4289    0.8250    0.0000 O   0  0  0  0  0  0  0  0  0  0  0  0
    2.1434   -0.4125    0.0000 C   0  0  0  0  0  0  0  0  0  0  0  0
    2.8579    0.0000    0.0000 C   0  0  0  0  0  0  0  0  0  0  0  0
    3.5724   -0.4125    0.0000 C   0  0  0  0  0  0  0  0  0  0  0  0
    3.5724   -1.2375    0.0000 C   0  0  0  0  0  0  0  0  0  0  0  0
    2.8579   -1.6500    0.0000 C   0  0  0  0  0  0  0  0  0  0  0  0
    2.1434   -1.2375    0.0000 C   0  0  0  0  0  0  0  0  0  0  0  0
    1.4289   -1.6500    0.0000 O   0  0  0  0  0  0  0  0  0  0  0  0
  1  2  1  0  0  0  0
  2  3  1  0  0  0  0
  3  4  2  0  0  0  0
  3  8  1  0  0  0  0
  4  5  1  0  0  0  0
  5  6  2  0  0  0  0
  6  7  1  0  0  0  0
  6 11  1  0  0  0  0
  7  8  2  0  0  0  0
  8  9  1  0  0  0  0
  9 10  1  0  0  0  0
 11 12  2  0  0  0  0
 11 21  1  0  0  0  0
 12 13  1  0  0  0  0
 13 14  2  0  0  0  0
 13 15  1  0  0  0  0
 15 16  2  0  0  0  0
 15 20  1  0  0  0  0
 16 17  1  0  0  0  0
 17 18  2  0  0  0  0
 18 19  1  0  0  0  0
 19 20  2  0  0  0  0
 20 21  1  0  0  0  0
M  END
$$$$

 OpenBabel12191814062D

 36 40  0  0  0  0  0  0  0  0999 V2000
   -2.1434    6.1875    0.0000 C   0  0  0  0  0  0  0  0  0  0  0  0
   -1.4289    5.7750    0.0000 O   0  0  0  0  0  0  0  0  0  0  0  0
   -1.4289    4.9500    0.0000 C   0  0  0  0  0  0  0  0  0  0  0  0
   -0.7145    4.5375    0.0000 C   0  0  0  0  0  0  0  0  0  0  0  0
   -0.7145    3.7125    0.0000 C   0  0  0  0  0  0  0  0  0  0  0  0
   -1.4289    3.3000    0.0000 C   0  0  0  0  0  0  0  0  0  0  0  0
   -2.1434    3.7125    0.0000 C   0  0  0  0  0  0  0  0  0  0  0  0
   -2.1434    4.5375    0.0000 C   0  0  0  0  0  0  0  0  0  0  0  0
   -2.8579    4.9500    0.0000 O   0  0  0  0  0  0  0  0  0  0  0  0
   -2.8579    5.7750    0.0000 C   0  0  0  0  0  0  0  0  0  0  0  0
   -1.4289    2.4750    0.0000 C   0  0  3  0  0  0  0  0  0  0  0  0
   -0.7145    2.0625    0.0000 O   0  0  0  0  0  0  0  0  0  0  0  0
   -0.7145    1.2375    0.0000 C   0  0  0  0  0  0  0  0  0  0  0  0
    0.0000    0.8250    0.0000 C   0  0  0  0  0  0  0  0  0  0  0  0
    0.0000    0.0000    0.0000 C   0  0  0  0  0  0  0  0  0  0  0  0
   -0.7145   -0.4125    0.0000 C   0  0  0  0  0  0  0  0  0  0  0  0
   -1.4289   -0.0000    0.0000 C   0  0  0  0  0  0  0  0  0  0  0  0
   -1.4289    0.8250    0.0000 C   0  0  0  0  0  0  0  0  0  0  0  0
   -2.1434    1.2375    0.0000 O   0  0  0  0  0  0  0  0  0  0  0  0
   -2.1434    2.0625    0.0000 C   0  0  3  0  0  0  0  0  0  0  0  0
   -2.8579    2.4750    0.0000 C   0  0  0  0  0  0  0  0  0  0  0  0
   -2.8579    3.3000    0.0000 O   0  0  0  0  0  0  0  0  0  0  0  0
    0.7145   -0.4125    0.0000 C   0  0  0  0  0  0  0  0  0  0  0  0
    1.4289    0.0000    0.0000 O   0  0  0  0  0  0  0  0  0  0  0  0
    2.1434   -0.4125    0.0000 C   0  0  0  0  0  0  0  0  0  0  0  0
    2.8579    0.0000    0.0000 C   0  0  0  0  0  0  0  0  0  0  0  0
    3.5724   -0.4125    0.0000 C   0  0  0  0  0  0  0  0  0  0  0  0
    4.2868   -0.0000    0.0000 O   0  0  0  0  0  0  0  0  0  0  0  0
    3.5724   -1.2375    0.0000 C   0  0  0  0  0  0  0  0  0  0  0  0
    2.8579   -1.6500    0.0000 C   0  0  0  0  0  0  0  0  0  0  0  0
    2.8579   -2.4750    0.0000 O   0  0  0  0  0  0  0  0  0  0  0  0
    2.1434   -1.2375    0.0000 C   0  0  0  0  0  0  0  0  0  0  0  0
    1.4289   -1.6500    0.0000 C   0  0  0  0  0  0  0  0  0  0  0  0
    1.4289   -2.4750    0.0000 O   0  0  0  0  0  0  0  0  0  0  0  0
    0.7145   -1.2375    0.0000 C   0  0  0  0  0  0  0  0  0  0  0  0
    0.0000   -1.6500    0.0000 O   0  0  0  0  0  0  0  0  0  0  0  0
  1  2  1  0  0  0  0
  2  3  1  0  0  0  0
  3  4  2  0  0  0  0
  3  8  1  0  0  0  0
  4  5  1  0  0  0  0
  5  6  2  0  0  0  0
  6  7  1  0  0  0  0
  6 11  1  0  0  0  0
  7  8  2  0  0  0  0
  8  9  1  0  0  0  0
  9 10  1  0  0  0  0
 11 12  1  0  0  0  0
 11 20  1  0  0  0  0
 12 13  1  0  0  0  0
 13 14  2  0  0  0  0
 13 18  1  0  0  0  0
 14 15  1  0  0  0  0
 15 16  2  0  0  0  0
 15 23  1  0  0  0  0
 16 17  1  0  0  0  0
 17 18  2  0  0  0  0
 18 19  1  0  0  0  0
 19 20  1  0  0  0  0
 20 21  1  0  0  0  0
 21 22  1  0  0  0  0
 23 24  1  0  0  0  0
 23 35  2  0  0  0  0
 24 25  1  0  0  0  0
 25 26  2  0  0  0  0
 25 32  1  0  0  0  0
 26 27  1  0  0  0  0
 27 28  1  0  0  0  0
 27 29  2  0  0  0  0
 29 30  1  0  0  0  0
 30 31  1  0  0  0  0
 30 32  2  0  0  0  0
 32 33  1  0  0  0  0
 33 34  2  0  0  0  0
 33 35  1  0  0  0  0
 35 36  1  0  0  0  0
M  END
$$$$

 OpenBabel12191814062D

 37 41  0  0  0  0  0  0  0  0999 V2000
   -2.1434    6.1875    0.0000 C   0  0  0  0  0  0  0  0  0  0  0  0
   -1.4289    5.7750    0.0000 O   0  0  0  0  0  0  0  0  0  0  0  0
   -1.4289    4.9500    0.0000 C   0  0  0  0  0  0  0  0  0  0  0  0
   -0.7145    4.5375    0.0000 C   0  0  0  0  0  0  0  0  0  0  0  0
   -0.7145    3.7125    0.0000 C   0  0  0  0  0  0  0  0  0  0  0  0
   -1.4289    3.3000    0.0000 C   0  0  0  0  0  0  0  0  0  0  0  0
   -2.1434    3.7125    0.0000 C   0  0  0  0  0  0  0  0  0  0  0  0
   -2.1434    4.5375    0.0000 C   0  0  0  0  0  0  0  0  0  0  0  0
   -2.8579    4.9500    0.0000 O   0  0  0  0  0  0  0  0  0  0  0  0
   -2.8579    5.7750    0.0000 C   0  0  0  0  0  0  0  0  0  0  0  0
   -1.4289    2.4750    0.0000 C   0  0  3  0  0  0  0  0  0  0  0  0
   -0.7145    2.0625    0.0000 O   0  0  0  0  0  0  0  0  0  0  0  0
   -0.7145    1.2375    0.0000 C   0  0  0  0  0  0  0  0  0  0  0  0
    0.0000    0.8250    0.0000 C   0  0  0  0  0  0  0  0  0  0  0  0
    0.0000    0.0000    0.0000 C   0  0  0  0  0  0  0  0  0  0  0  0
   -0.7145   -0.4125    0.0000 C   0  0  0  0  0  0  0  0  0  0  0  0
   -1.4289   -0.0000    0.0000 C   0  0  0  0  0  0  0  0  0  0  0  0
   -1.4289    0.8250    0.0000 C   0  0  0  0  0  0  0  0  0  0  0  0
   -2.1434    1.2375    0.0000 O   0  0  0  0  0  0  0  0  0  0  0  0
   -2.1434    2.0625    0.0000 C   0  0  3  0  0  0  0  0  0  0  0  0
   -2.8579    2.4750    0.0000 C   0  0  0  0  0  0  0  0  0  0  0  0
   -2.8579    3.3000    0.0000 O   0  0  0  0  0  0  0  0  0  0  0  0
    0.7145   -0.4125    0.0000 C   0  0  0  0  0  0  0  0  0  0  0  0
    1.4289    0.0000    0.0000 O   0  0  0  0  0  0  0  0  0  0  0  0
    2.1434   -0.4125    0.0000 C   0  0  0  0  0  0  0  0  0  0  0  0
    2.8579    0.0000    0.0000 C   0  0  0  0  0  0  0  0  0  0  0  0
    3.5724   -0.4125    0.0000 C   0  0  0  0  0  0  0  0  0  0  0  0
    4.2868   -0.0000    0.0000 O   0  0  0  0  0  0  0  0  0  0  0  0
    3.5724   -1.2375    0.0000 C   0  0  0  0  0  0  0  0  0  0  0  0
    2.8579   -1.6500    0.0000 C   0  0  0  0  0  0  0  0  0  0  0  0
    2.8579   -2.4750    0.0000 O   0  0  0  0  0  0  0  0  0  0  0  0
    2.1434   -1.2375    0.0000 C   0  0  0  0  0  0  0  0  0  0  0  0
    1.4289   -1.6500    0.0000 C   0  0  0  0  0  0  0  0  0  0  0  0
    1.4289   -2.4750    0.0000 O   0  0  0  0  0  0  0  0  0  0  0  0
    0.7145   -1.2375    0.0000 C   0  0  0  0  0  0  0  0  0  0  0  0
    0.0000   -1.6500    0.0000 O   0  0  0  0  0  0  0  0  0  0  0  0
   -0.7145   -1.2375    0.0000 C   0  0  0  0  0  0  0  0  0  0  0  0
  1  2  1  0  0  0  0
  2  3  1  0  0  0  0
  3  4  2  0  0  0  0
  3  8  1  0  0  0  0
  4  5  1  0  0  0  0
  5  6  2  0  0  0  0
  6  7  1  0  0  0  0
  6 11  1  0  0  0  0
  7  8  2  0  0  0  0
  8  9  1  0  0  0  0
  9 10  1  0  0  0  0
 11 12  1  0  0  0  0
 11 20  1  0  0  0  0
 12 13  1  0  0  0  0
 13 14  2  0  0  0  0
 13 18  1  0  0  0  0
 14 15  1  0  0  0  0
 15 16  2  0  0  0  0
 15 23  1  0  0  0  0
 16 17  1  0  0  0  0
 17 18  2  0  0  0  0
 18 19  1  0  0  0  0
 19 20  1  0  0  0  0
 20 21  1  0  0  0  0
 21 22  1  0  0  0  0
 23 24  1  0  0  0  0
 23 35  2  0  0  0  0
 24 25  1  0  0  0  0
 25 26  2  0  0  0  0
 25 32  1  0  0  0  0
 26 27  1  0  0  0  0
 27 28  1  0  0  0  0
 27 29  2  0  0  0  0
 29 30  1  0  0  0  0
 30 31  1  0  0  0  0
 30 32  2  0  0  0  0
 32 33  1  0  0  0  0
 33 34  2  0  0  0  0
 33 35  1  0  0  0  0
 35 36  1  0  0  0  0
 36 37  1  0  0  0  0
M  END
$$$$

 OpenBabel12191814062D

 23 25  0  0  0  0  0  0  0  0999 V2000
   -2.8579    0.8250    0.0000 C   0  0  0  0  0  0  0  0  0  0  0  0
   -2.1434    1.2375    0.0000 O   0  0  0  0  0  0  0  0  0  0  0  0
   -1.4289    0.8250    0.0000 C   0  0  0  0  0  0  0  0  0  0  0  0
   -0.7145    1.2375    0.0000 C   0  0  0  0  0  0  0  0  0  0  0  0
    0.0000    0.8250    0.0000 C   0  0  0  0  0  0  0  0  0  0  0  0
    0.0000    0.0000    0.0000 C   0  0  0  0  0  0  0  0  0  0  0  0
   -0.7145   -0.4125    0.0000 C   0  0  0  0  0  0  0  0  0  0  0  0
   -1.4289   -0.0000    0.0000 C   0  0  0  0  0  0  0  0  0  0  0  0
   -2.1434   -0.4125    0.0000 O   0  0  0  0  0  0  0  0  0  0  0  0
   -2.8579   -0.0000    0.0000 C   0  0  0  0  0  0  0  0  0  0  0  0
    0.7145   -0.4125    0.0000 C   0  0  0  0  0  0  0  0  0  0  0  0
    1.4289    0.0000    0.0000 O   0  0  0  0  0  0  0  0  0  0  0  0
    2.1434   -0.4125    0.0000 C   0  0  0  0  0  0  0  0  0  0  0  0
    2.8579    0.0000    0.0000 C   0  0  0  0  0  0  0  0  0  0  0  0
    3.5724   -0.4125    0.0000 C   0  0  0  0  0  0  0  0  0  0  0  0
    4.2868   -0.0000    0.0000 O   0  0  0  0  0  0  0  0  0  0  0  0
    3.5724   -1.2375    0.0000 C   0  0  0  0  0  0  0  0  0  0  0  0
    2.8579   -1.6500    0.0000 C   0  0  0  0  0  0  0  0  0  0  0  0
    2.1434   -1.2375    0.0000 C   0  0  0  0  0  0  0  0  0  0  0  0
    1.4289   -1.6500    0.0000 C   0  0  0  0  0  0  0  0  0  0  0  0
    1.4289   -2.4750    0.0000 O   0  0  0  0  0  0  0  0  0  0  0  0
    0.7145   -1.2375    0.0000 C   0  0  0  0  0  0  0  0  0  0  0  0
    0.0000   -1.6500    0.0000 O   0  0  0  0  0  0  0  0  0  0  0  0
  1  2  1  0  0  0  0
  2  3  1  0  0  0  0
  3  4  2  0  0  0  0
  3  8  1  0  0  0  0
  4  5  1  0  0  0  0
  5  6  2  0  0  0  0
  6  7  1  0  0  0  0
  6 11  1  0  0  0  0
  7  8  2  0  0  0  0
  8  9  1  0  0  0  0
  9 10  1  0  0  0  0
 11 12  1  0  0  0  0
 11 22  2  0  0  0  0
 12 13  1  0  0  0  0
 13 14  2  0  0  0  0
 13 19  1  0  0  0  0
 14 15  1  0  0  0  0
 15 16  1  0  0  0  0
 15 17  2  0  0  0  0
 17 18  1  0  0  0  0
 18 19  2  0  0  0  0
 19 20  1  0  0  0  0
 20 21  2  0  0  0  0
 20 22  1  0  0  0  0
 22 23  1  0  0  0  0
M  END
$$$$

 OpenBabel12191814062D

 45 49  0  0  0  0  0  0  0  0999 V2000
    9.2881   -2.0625    0.0000 C   0  0  0  0  0  0  0  0  0  0  0  0
    8.5737   -2.4750    0.0000 O   0  0  0  0  0  0  0  0  0  0  0  0
    7.8592   -2.0625    0.0000 C   0  0  0  0  0  0  0  0  0  0  0  0
    7.1447   -2.4750    0.0000 C   0  0  0  0  0  0  0  0  0  0  0  0
    6.4302   -2.0625    0.0000 C   0  0  0  0  0  0  0  0  0  0  0  0
    6.4302   -1.2375    0.0000 C   0  0  0  0  0  0  0  0  0  0  0  0
    7.1447   -0.8250    0.0000 C   0  0  0  0  0  0  0  0  0  0  0  0
    7.8592   -1.2375    0.0000 C   0  0  0  0  0  0  0  0  0  0  0  0
    8.5737   -0.8250    0.0000 O   0  0  0  0  0  0  0  0  0  0  0  0
    9.2881   -1.2375    0.0000 C   0  0  0  0  0  0  0  0  0  0  0  0
   10.0026   -0.8250    0.0000 C   0  0  0  0  0  0  0  0  0  0  0  0
   10.7171   -1.2375    0.0000 C   0  0  0  0  0  0  0  0  0  0  0  0
   11.4707   -0.9019    0.0000 C   0  0  0  0  0  0  0  0  0  0  0  0
   12.0228   -1.5150    0.0000 N   0  0  0  0  0  0  0  0  0  0  0  0
   11.6103   -2.2295    0.0000 C   0  0  0  0  0  0  0  0  0  0  0  0
   10.8033   -2.0580    0.0000 N   0  0  0  0  0  0  0  0  0  0  0  0
    5.7158   -0.8250    0.0000 C   0  0  3  0  0  0  0  0  0  0  0  0
    5.7158    0.0000    0.0000 C   0  0  0  0  0  0  0  0  0  0  0  0
    5.0013    0.4125    0.0000 C   0  0  0  0  0  0  0  0  0  0  0  0
    4.2868    0.0000    0.0000 C   0  0  0  0  0  0  0  0  0  0  0  0
    4.2868   -0.8250    0.0000 C   0  0  0  0  0  0  0  0  0  0  0  0
    3.5724   -1.2375    0.0000 C   0  0  0  0  0  0  0  0  0  0  0  0
    3.5724   -2.0625    0.0000 C   0  0  0  0  0  0  0  0  0  0  0  0
    2.8579   -2.4750    0.0000 N   0  0  0  0  0  0  0  0  0  0  0  0
    2.8579   -3.3000    0.0000 C   0  0  0  0  0  0  0  0  0  0  0  0
    2.1434   -3.7125    0.0000 C   0  0  0  0  0  0  0  0  0  0  0  0
    1.4289   -3.3000    0.0000 C   0  0  0  0  0  0  0  0  0  0  0  0
    0.7145   -3.7125    0.0000 C   0  0  0  0  0  0  0  0  0  0  0  0
    0.0000   -3.3000    0.0000 C   0  0  0  0  0  0  0  0  0  0  0  0
   -0.7145   -3.7125    0.0000 O   0  0  0  0  0  0  0  0  0  0  0  0
   -0.7145   -4.5375    0.0000 C   0  0  0  0  0  0  0  0  0  0  0  0
    0.0000   -2.4750    0.0000 C   0  0  0  0  0  0  0  0  0  0  0  0
   -0.7145   -2.0625    0.0000 O   0  0  0  0  0  0  0  0  0  0  0  0
   -0.7145   -1.2375    0.0000 C   0  0  0  0  0  0  0  0  0  0  0  0
    0.7145   -2.0625    0.0000 C   0  0  0  0  0  0  0  0  0  0  0  0
    1.4289   -2.4750    0.0000 C   0  0  0  0  0  0  0  0  0  0  0  0
    2.1434   -2.0625    0.0000 C   0  0  0  0  0  0  0  0  0  0  0  0
    5.0013   -1.2375    0.0000 S   0  0  0  0  0  0  0  0  0  0  0  0
    5.0013   -2.0625    0.0000 C   0  0  0  0  0  0  0  0  0  0  0  0
    5.7158   -2.4750    0.0000 C   0  0  0  0  0  0  0  0  0  0  0  0
    5.7158   -3.3000    0.0000 C   0  0  0  0  0  0  0  0  0  0  0  0
    5.0013   -3.7125    0.0000 C   0  0  0  0  0  0  0  0  0  0  0  0
    5.0013   -4.5375    0.0000 C   0  0  0  0  0  0  0  0  0  0  0  0
    4.2868   -3.3000    0.0000 C   0  0  0  0  0  0  0  0  0  0  0  0
    4.2868   -2.4750    0.0000 C   0  0  0  0  0  0  0  0  0  0  0  0
  1  2  1  0  0  0  0
  2  3  1  0  0  0  0
  3  4  2  0  0  0  0
  3  8  1  0  0  0  0
  4  5  1  0  0  0  0
  5  6  2  0  0  0  0
  6  7  1  0  0  0  0
  6 17  1  0  0  0  0
  7  8  2  0  0  0  0
  8  9  1  0  0  0  0
  9 10  1  0  0  0  0
 10 11  1  0  0  0  0
 11 12  1  0  0  0  0
 12 13  2  0  0  0  0
 12 16  1  0  0  0  0
 13 14  1  0  0  0  0
 14 15  1  0  0  0  0
 15 16  2  0  0  0  0
 17 18  1  0  0  0  0
 17 38  1  0  0  0  0
 18 19  1  0  0  0  0
 19 20  1  0  0  0  0
 20 21  1  0  0  0  0
 21 22  1  0  0  0  0
 22 23  1  0  0  0  0
 23 24  1  0  0  0  0
 24 25  1  0  0  0  0
 24 37  1  0  0  0  0
 25 26  1  0  0  0  0
 26 27  1  0  0  0  0
 27 28  2  0  0  0  0
 27 36  1  0  0  0  0
 28 29  1  0  0  0  0
 29 30  1  0  0  0  0
 29 32  2  0  0  0  0
 30 31  1  0  0  0  0
 32 33  1  0  0  0  0
 32 35  1  0  0  0  0
 33 34  1  0  0  0  0
 35 36  2  0  0  0  0
 36 37  1  0  0  0  0
 38 39  1  0  0  0  0
 39 40  2  0  0  0  0
 39 45  1  0  0  0  0
 40 41  1  0  0  0  0
 41 42  2  0  0  0  0
 42 43  1  0  0  0  0
 42 44  1  0  0  0  0
 44 45  2  0  0  0  0
M  END
$$$$

 OpenBabel12191814062D

 46 49  0  0  0  0  0  0  0  0999 V2000
    6.0177   -1.3480    0.0000 C   0  0  0  0  0  0  0  0  0  0  0  0
    5.3033   -0.9355    0.0000 O   0  0  0  0  0  0  0  0  0  0  0  0
    5.3033   -0.1105    0.0000 C   0  0  0  0  0  0  0  0  0  0  0  0
    4.5888    0.3020    0.0000 C   0  0  0  0  0  0  0  0  0  0  0  0
    4.5888    1.1270    0.0000 C   0  0  0  0  0  0  0  0  0  0  0  0
    5.3033    1.5395    0.0000 C   0  0  0  0  0  0  0  0  0  0  0  0
    5.3033    2.3645    0.0000 C   0  0  0  0  0  0  0  0  0  0  0  0
    4.5888    2.7770    0.0000 C   0  0  3  0  0  0  0  0  0  0  0  0
    4.5888    1.9520    0.0000 N   0  0  0  0  0  0  0  0  0  0  0  0
    3.8743    1.5395    0.0000 C   0  0  0  0  0  0  0  0  0  0  0  0
    3.8743    0.7145    0.0000 O   0  0  0  0  0  0  0  0  0  0  0  0
    3.1599    1.9520    0.0000 C   0  0  0  0  0  0  0  0  0  0  0  0
    3.1599    2.7770    0.0000 C   0  0  0  0  0  0  0  0  0  0  0  0
    2.4454    3.1895    0.0000 C   0  0  0  0  0  0  0  0  0  0  0  0
    2.4454    4.0145    0.0000 C   0  0  3  0  0  0  0  0  0  0  0  0
    1.7309    4.4270    0.0000 O   0  0  0  0  0  0  0  0  0  0  0  0
    1.7309    5.2520    0.0000 C   0  0  0  0  0  0  0  0  0  0  0  0
    1.0164    5.6645    0.0000 O   0  0  0  0  0  0  0  0  0  0  0  0
    2.4454    5.6645    0.0000 C   0  0  3  0  0  0  0  0  0  0  0  0
    2.4454    6.4895    0.0000 C   0  0  0  0  0  0  0  0  0  0  0  0
    1.7309    6.9020    0.0000 C   0  0  0  0  0  0  0  0  0  0  0  0
    1.0164    6.4895    0.0000 C   0  0  0  0  0  0  0  0  0  0  0  0
    1.7309    7.7270    0.0000 C   0  0  0  0  0  0  0  0  0  0  0  0
    3.1599    5.2520    0.0000 O   0  0  0  0  0  0  0  0  0  0  0  0
    3.8743    5.6645    0.0000 C   0  0  0  0  0  0  0  0  0  0  0  0
    3.8743    6.4895    0.0000 O   0  0  0  0  0  0  0  0  0  0  0  0
    4.5888    5.2520    0.0000 C   0  0  3  0  0  0  0  0  0  0  0  0
    5.3033    5.6645    0.0000 C   0  0  0  0  0  0  0  0  0  0  0  0
    4.5888    4.4270    0.0000 C   0  0  0  0  0  0  0  0  0  0  0  0
    5.3033    4.0145    0.0000 N   0  0  0  0  0  0  0  0  0  0  0  0
    5.3033    3.1895    0.0000 C   0  0  0  0  0  0  0  0  0  0  0  0
    6.0177    2.7770    0.0000 O   0  0  0  0  0  0  0  0  0  0  0  0
    1.7309    3.6020    0.0000 C   0  0  3  0  0  0  0  0  0  0  0  0
    1.0164    4.0145    0.0000 C   0  0  0  0  0  0  0  0  0  0  0  0
    1.7309    2.7770    0.0000 C   0  0  3  0  0  0  0  0  0  0  0  0
    2.1434    2.0625    0.0000 O   0  0  0  0  0  0  0  0  0  0  0  0
    1.3184    2.0625    0.0000 C   0  0  3  0  0  0  0  0  0  0  0  0
    0.6039    1.6500    0.0000 C   0  0  0  0  0  0  0  0  0  0  0  0
    0.6039    0.8250    0.0000 C   0  0  0  0  0  0  0  0  0  0  0  0
   -0.1105    0.4125    0.0000 C   0  0  0  0  0  0  0  0  0  0  0  0
   -0.8250    0.8250    0.0000 C   0  0  0  0  0  0  0  0  0  0  0  0
   -0.8250    1.6500    0.0000 C   0  0  0  0  0  0  0  0  0  0  0  0
   -0.1105    2.0625    0.0000 C   0  0  0  0  0  0  0  0  0  0  0  0
    6.0177    1.1270    0.0000 C   0  0  0  0  0  0  0  0  0  0  0  0
    6.0177    0.3020    0.0000 C   0  0  0  0  0  0  0  0  0  0  0  0
    6.7322   -0.1105    0.0000 Cl  0  0  0  0  0  0  0  0  0  0  0  0
  1  2  1  0  0  0  0
  2  3  1  0  0  0  0
  3  4  2  0  0  0  0
  3 45  1  0  0  0  0
  4  5  1  0  0  0  0
  5  6  2  0  0  0  0
  6  7  1  0  0  0  0
  6 44  1  0  0  0  0
  7  8  1  0  0  0  0
  8  9  1  0  0  0  0
  8 31  1  0  0  0  0
  9 10  1  0  0  0  0
 10 11  2  0  0  0  0
 10 12  1  0  0  0  0
 12 13  2  0  0  0  0
 13 14  1  0  0  0  0
 14 15  1  0  0  0  0
 15 16  1  0  0  0  0
 15 33  1  0  0  0  0
 16 17  1  0  0  0  0
 17 18  2  0  0  0  0
 17 19  1  0  0  0  0
 19 20  1  0  0  0  0
 19 24  1  0  0  0  0
 20 21  1  0  0  0  0
 21 22  1  0  0  0  0
 21 23  1  0  0  0  0
 24 25  1  0  0  0  0
 25 26  2  0  0  0  0
 25 27  1  0  0  0  0
 27 28  1  0  0  0  0
 27 29  1  0  0  0  0
 29 30  1  0  0  0  0
 30 31  1  0  0  0  0
 31 32  2  0  0  0  0
 33 34  1  0  0  0  0
 33 35  1  0  0  0  0
 35 36  1  0  0  0  0
 35 37  1  0  0  0  0
 36 37  1  0  0  0  0
 37 38  1  0  0  0  0
 38 39  2  0  0  0  0
 38 43  1  0  0  0  0
 39 40  1  0  0  0  0
 40 41  2  0  0  0  0
 41 42  1  0  0  0  0
 42 43  2  0  0  0  0
 44 45  2  0  0  0  0
 45 46  1  0  0  0  0
M  END
$$$$

 OpenBabel12191814062D

 25 27  0  0  0  0  0  0  0  0999 V2000
   -1.4289   -4.9500    0.0000 C   0  0  0  0  0  0  0  0  0  0  0  0
   -1.4289   -4.1250    0.0000 O   0  0  0  0  0  0  0  0  0  0  0  0
   -0.7145   -3.7125    0.0000 C   0  0  0  0  0  0  0  0  0  0  0  0
   -0.7145   -2.8875    0.0000 C   0  0  0  0  0  0  0  0  0  0  0  0
    0.0000   -2.4750    0.0000 C   0  0  0  0  0  0  0  0  0  0  0  0
    0.7145   -2.8875    0.0000 C   0  0  0  0  0  0  0  0  0  0  0  0
    1.4289   -2.4750    0.0000 C   0  0  0  0  0  0  0  0  0  0  0  0
    1.4289   -1.6500    0.0000 C   0  0  3  0  0  0  0  0  0  0  0  0
    0.7145   -1.2375    0.0000 N   0  0  0  0  0  0  0  0  0  0  0  0
    0.7145   -0.4125    0.0000 C   0  0  0  0  0  0  0  0  0  0  0  0
    1.4289    0.0000    0.0000 C   0  0  0  0  0  0  0  0  0  0  0  0
    2.1434   -0.4125    0.0000 C   0  0  0  0  0  0  0  0  0  0  0  0
    2.8579    0.0000    0.0000 C   0  0  0  0  0  0  0  0  0  0  0  0
    3.5724   -0.4125    0.0000 C   0  0  0  0  0  0  0  0  0  0  0  0
    4.2868   -0.0000    0.0000 O   0  0  0  0  0  0  0  0  0  0  0  0
    4.2868    0.8250    0.0000 C   0  0  0  0  0  0  0  0  0  0  0  0
    3.5724   -1.2375    0.0000 C   0  0  0  0  0  0  0  0  0  0  0  0
    4.2868   -1.6500    0.0000 O   0  0  0  0  0  0  0  0  0  0  0  0
    4.2868   -2.4750    0.0000 C   0  0  0  0  0  0  0  0  0  0  0  0
    2.8579   -1.6500    0.0000 C   0  0  0  0  0  0  0  0  0  0  0  0
    2.1434   -1.2375    0.0000 C   0  0  0  0  0  0  0  0  0  0  0  0
    0.7145   -3.7125    0.0000 C   0  0  0  0  0  0  0  0  0  0  0  0
    0.0000   -4.1250    0.0000 C   0  0  0  0  0  0  0  0  0  0  0  0
    0.0000   -4.9500    0.0000 O   0  0  0  0  0  0  0  0  0  0  0  0
   -0.7145   -5.3625    0.0000 C   0  0  0  0  0  0  0  0  0  0  0  0
  1  2  1  0  0  0  0
  2  3  1  0  0  0  0
  3  4  2  0  0  0  0
  3 23  1  0  0  0  0
  4  5  1  0  0  0  0
  5  6  2  0  0  0  0
  6  7  1  0  0  0  0
  6 22  1  0  0  0  0
  7  8  1  0  0  0  0
  8  9  1  0  0  0  0
  8 21  1  0  0  0  0
  9 10  1  0  0  0  0
 10 11  1  0  0  0  0
 11 12  1  0  0  0  0
 12 13  2  0  0  0  0
 12 21  1  0  0  0  0
 13 14  1  0  0  0  0
 14 15  1  0  0  0  0
 14 17  2  0  0  0  0
 15 16  1  0  0  0  0
 17 18  1  0  0  0  0
 17 20  1  0  0  0  0
 18 19  1  0  0  0  0
 20 21  2  0  0  0  0
 22 23  2  0  0  0  0
 23 24  1  0  0  0  0
 24 25  1  0  0  0  0
M  END
$$$$

 OpenBabel12191814062D

 36 39  0  0  0  0  0  0  0  0999 V2000
    5.7158   -4.9500    0.0000 C   0  0  0  0  0  0  0  0  0  0  0  0
    6.4302   -5.3625    0.0000 O   0  0  0  0  0  0  0  0  0  0  0  0
    6.4302   -6.1875    0.0000 C   0  0  0  0  0  0  0  0  0  0  0  0
    7.1447   -6.6000    0.0000 C   0  0  0  0  0  0  0  0  0  0  0  0
    7.1447   -7.4250    0.0000 C   0  0  0  0  0  0  0  0  0  0  0  0
    6.4302   -7.8375    0.0000 C   0  0  0  0  0  0  0  0  0  0  0  0
    6.4302   -8.6625    0.0000 C   0  0  0  0  0  0  0  0  0  0  0  0
    7.1447   -9.0750    0.0000 C   0  0  0  0  0  0  0  0  0  0  0  0
    7.1447   -9.9000    0.0000 C   0  0  0  0  0  0  0  0  0  0  0  0
    6.4302  -10.3125    0.0000 O   0  0  0  0  0  0  0  0  0  0  0  0
    7.8592  -10.3125    0.0000 C   0  0  0  0  0  0  0  0  0  0  0  0
    8.5737   -9.9000    0.0000 C   0  0  0  0  0  0  0  0  0  0  0  0
    9.2881  -10.3125    0.0000 C   0  0  0  0  0  0  0  0  0  0  0  0
    9.2881  -11.1375    0.0000 C   0  0  0  0  0  0  0  0  0  0  0  0
    8.5737  -11.5500    0.0000 C   0  0  0  0  0  0  0  0  0  0  0  0
    7.8592  -11.1375    0.0000 C   0  0  0  0  0  0  0  0  0  0  0  0
    7.1447  -11.5500    0.0000 O   0  0  0  0  0  0  0  0  0  0  0  0
    7.1447  -12.3750    0.0000 C   0  0  0  0  0  0  0  0  0  0  0  0
    6.4302  -12.7875    0.0000 C   0  0  3  0  0  0  0  0  0  0  0  0
    5.7158  -12.3750    0.0000 O   0  0  0  0  0  0  0  0  0  0  0  0
    6.4302  -13.6125    0.0000 C   0  0  0  0  0  0  0  0  0  0  0  0
    5.7158  -14.0250    0.0000 N   0  0  0  0  0  0  0  0  0  0  0  0
    5.7158  -14.8500    0.0000 C   0  0  0  0  0  0  0  0  0  0  0  0
    5.0013  -15.2625    0.0000 C   0  0  0  0  0  0  0  0  0  0  0  0
    4.2868  -14.8500    0.0000 N   0  0  0  0  0  0  0  0  0  0  0  0
    4.2868  -14.0250    0.0000 C   0  0  0  0  0  0  0  0  0  0  0  0
    5.0013  -13.6125    0.0000 C   0  0  0  0  0  0  0  0  0  0  0  0
    3.5724  -15.2625    0.0000 C   0  0  0  0  0  0  0  0  0  0  0  0
    3.5724  -16.0875    0.0000 C   0  0  0  0  0  0  0  0  0  0  0  0
    2.8579  -16.5000    0.0000 C   0  0  0  0  0  0  0  0  0  0  0  0
    2.1434  -16.0875    0.0000 C   0  0  0  0  0  0  0  0  0  0  0  0
    2.1434  -15.2625    0.0000 C   0  0  0  0  0  0  0  0  0  0  0  0
    2.8579  -14.8500    0.0000 C   0  0  0  0  0  0  0  0  0  0  0  0
    2.8579  -14.0250    0.0000 C   0  0  0  0  0  0  0  0  0  0  0  0
    5.7158   -7.4250    0.0000 C   0  0  0  0  0  0  0  0  0  0  0  0
    5.7158   -6.6000    0.0000 C   0  0  0  0  0  0  0  0  0  0  0  0
  1  2  1  0  0  0  0
  2  3  1  0  0  0  0
  3  4  2  0  0  0  0
  3 36  1  0  0  0  0
  4  5  1  0  0  0  0
  5  6  2  0  0  0  0
  6  7  1  0  0  0  0
  6 35  1  0  0  0  0
  7  8  1  0  0  0  0
  8  9  1  0  0  0  0
  9 10  2  0  0  0  0
  9 11  1  0  0  0  0
 11 12  2  0  0  0  0
 11 16  1  0  0  0  0
 12 13  1  0  0  0  0
 13 14  2  0  0  0  0
 14 15  1  0  0  0  0
 15 16  2  0  0  0  0
 16 17  1  0  0  0  0
 17 18  1  0  0  0  0
 18 19  1  0  0  0  0
 19 20  1  0  0  0  0
 19 21  1  0  0  0  0
 21 22  1  0  0  0  0
 22 23  1  0  0  0  0
 22 27  1  0  0  0  0
 23 24  1  0  0  0  0
 24 25  1  0  0  0  0
 25 26  1  0  0  0  0
 25 28  1  0  0  0  0
 26 27  1  0  0  0  0
 28 29  2  0  0  0  0
 28 33  1  0  0  0  0
 29 30  1  0  0  0  0
 30 31  2  0  0  0  0
 31 32  1  0  0  0  0
 32 33  2  0  0  0  0
 33 34  1  0  0  0  0
 35 36  2  0  0  0  0
M  END
$$$$

 OpenBabel12191814062D

 25 27  0  0  0  0  0  0  0  0999 V2000
    1.4289   -6.6000    0.0000 C   0  0  0  0  0  0  0  0  0  0  0  0
    0.7145   -6.1875    0.0000 O   0  0  0  0  0  0  0  0  0  0  0  0
    0.7145   -5.3625    0.0000 C   0  0  0  0  0  0  0  0  0  0  0  0
    0.0000   -4.9500    0.0000 C   0  0  0  0  0  0  0  0  0  0  0  0
    0.0000   -4.1250    0.0000 C   0  0  0  0  0  0  0  0  0  0  0  0
    0.7145   -3.7125    0.0000 C   0  0  0  0  0  0  0  0  0  0  0  0
    0.7145   -2.8875    0.0000 C   0  0  0  0  0  0  0  0  0  0  0  0
    1.4289   -2.4750    0.0000 C   0  0  0  0  0  0  0  0  0  0  0  0
    1.4289   -1.6500    0.0000 C   0  0  3  0  0  0  0  0  0  0  0  0
    0.7145   -1.2375    0.0000 N   0  0  0  0  0  0  0  0  0  0  0  0
    0.0000   -1.6500    0.0000 C   0  0  0  0  0  0  0  0  0  0  0  0
    0.7145   -0.4125    0.0000 C   0  0  0  0  0  0  0  0  0  0  0  0
    1.4289    0.0000    0.0000 C   0  0  0  0  0  0  0  0  0  0  0  0
    2.1434   -0.4125    0.0000 C   0  0  0  0  0  0  0  0  0  0  0  0
    2.8579    0.0000    0.0000 C   0  0  0  0  0  0  0  0  0  0  0  0
    3.5724   -0.4125    0.0000 C   0  0  0  0  0  0  0  0  0  0  0  0
    4.2868   -0.0000    0.0000 O   0  0  0  0  0  0  0  0  0  0  0  0
    4.2868    0.8250    0.0000 C   0  0  0  0  0  0  0  0  0  0  0  0
    3.5724   -1.2375    0.0000 C   0  0  0  0  0  0  0  0  0  0  0  0
    4.2868   -1.6500    0.0000 O   0  0  0  0  0  0  0  0  0  0  0  0
    4.2868   -2.4750    0.0000 C   0  0  0  0  0  0  0  0  0  0  0  0
    2.8579   -1.6500    0.0000 C   0  0  0  0  0  0  0  0  0  0  0  0
    2.1434   -1.2375    0.0000 C   0  0  0  0  0  0  0  0  0  0  0  0
    1.4289   -4.1250    0.0000 C   0  0  0  0  0  0  0  0  0  0  0  0
    1.4289   -4.9500    0.0000 C   0  0  0  0  0  0  0  0  0  0  0  0
  1  2  1  0  0  0  0
  2  3  1  0  0  0  0
  3  4  2  0  0  0  0
  3 25  1  0  0  0  0
  4  5  1  0  0  0  0
  5  6  2  0  0  0  0
  6  7  1  0  0  0  0
  6 24  1  0  0  0  0
  7  8  1  0  0  0  0
  8  9  1  0  0  0  0
  9 10  1  0  0  0  0
  9 23  1  0  0  0  0
 10 11  1  0  0  0  0
 10 12  1  0  0  0  0
 12 13  1  0  0  0  0
 13 14  1  0  0  0  0
 14 15  2  0  0  0  0
 14 23  1  0  0  0  0
 15 16  1  0  0  0  0
 16 17  1  0  0  0  0
 16 19  2  0  0  0  0
 17 18  1  0  0  0  0
 19 20  1  0  0  0  0
 19 22  1  0  0  0  0
 20 21  1  0  0  0  0
 22 23  2  0  0  0  0
 24 25  2  0  0  0  0
M  END
$$$$

 OpenBabel12191814062D

 27 29  0  0  0  0  0  0  0  0999 V2000
    1.4289   -6.6000    0.0000 C   0  0  0  0  0  0  0  0  0  0  0  0
    0.7145   -6.1875    0.0000 O   0  0  0  0  0  0  0  0  0  0  0  0
    0.7145   -5.3625    0.0000 C   0  0  0  0  0  0  0  0  0  0  0  0
    0.0000   -4.9500    0.0000 C   0  0  0  0  0  0  0  0  0  0  0  0
    0.0000   -4.1250    0.0000 C   0  0  0  0  0  0  0  0  0  0  0  0
    0.7145   -3.7125    0.0000 C   0  0  0  0  0  0  0  0  0  0  0  0
    0.7145   -2.8875    0.0000 C   0  0  0  0  0  0  0  0  0  0  0  0
    1.4289   -2.4750    0.0000 C   0  0  0  0  0  0  0  0  0  0  0  0
    1.4289   -1.6500    0.0000 C   0  0  3  0  0  0  0  0  0  0  0  0
    0.7145   -1.2375    0.0000 N   0  0  0  0  0  0  0  0  0  0  0  0
    0.0000   -1.6500    0.0000 C   0  0  0  0  0  0  0  0  0  0  0  0
    0.7145   -0.4125    0.0000 C   0  0  0  0  0  0  0  0  0  0  0  0
    1.4289    0.0000    0.0000 C   0  0  0  0  0  0  0  0  0  0  0  0
    2.1434   -0.4125    0.0000 C   0  0  0  0  0  0  0  0  0  0  0  0
    2.8579    0.0000    0.0000 C   0  0  0  0  0  0  0  0  0  0  0  0
    3.5724   -0.4125    0.0000 C   0  0  0  0  0  0  0  0  0  0  0  0
    4.2868   -0.0000    0.0000 O   0  0  0  0  0  0  0  0  0  0  0  0
    4.2868    0.8250    0.0000 C   0  0  0  0  0  0  0  0  0  0  0  0
    3.5724   -1.2375    0.0000 C   0  0  0  0  0  0  0  0  0  0  0  0
    4.2868   -1.6500    0.0000 O   0  0  0  0  0  0  0  0  0  0  0  0
    4.2868   -2.4750    0.0000 C   0  0  0  0  0  0  0  0  0  0  0  0
    2.8579   -1.6500    0.0000 C   0  0  0  0  0  0  0  0  0  0  0  0
    2.1434   -1.2375    0.0000 C   0  0  0  0  0  0  0  0  0  0  0  0
    1.4289   -4.1250    0.0000 C   0  0  0  0  0  0  0  0  0  0  0  0
    1.4289   -4.9500    0.0000 C   0  0  0  0  0  0  0  0  0  0  0  0
    2.1434   -5.3625    0.0000 O   0  0  0  0  0  0  0  0  0  0  0  0
    2.1434   -6.1875    0.0000 C   0  0  0  0  0  0  0  0  0  0  0  0
  1  2  1  0  0  0  0
  2  3  1  0  0  0  0
  3  4  2  0  0  0  0
  3 25  1  0  0  0  0
  4  5  1  0  0  0  0
  5  6  2  0  0  0  0
  6  7  1  0  0  0  0
  6 24  1  0  0  0  0
  7  8  1  0  0  0  0
  8  9  1  0  0  0  0
  9 10  1  0  0  0  0
  9 23  1  0  0  0  0
 10 11  1  0  0  0  0
 10 12  1  0  0  0  0
 12 13  1  0  0  0  0
 13 14  1  0  0  0  0
 14 15  2  0  0  0  0
 14 23  1  0  0  0  0
 15 16  1  0  0  0  0
 16 17  1  0  0  0  0
 16 19  2  0  0  0  0
 17 18  1  0  0  0  0
 19 20  1  0  0  0  0
 19 22  1  0  0  0  0
 20 21  1  0  0  0  0
 22 23  2  0  0  0  0
 24 25  2  0  0  0  0
 25 26  1  0  0  0  0
 26 27  1  0  0  0  0
M  END
$$$$

 OpenBabel12191814062D

 24 26  0  0  0  0  0  0  0  0999 V2000
    1.4289   -6.6000    0.0000 C   0  0  0  0  0  0  0  0  0  0  0  0
    0.7145   -6.1875    0.0000 O   0  0  0  0  0  0  0  0  0  0  0  0
    0.7145   -5.3625    0.0000 C   0  0  0  0  0  0  0  0  0  0  0  0
    0.0000   -4.9500    0.0000 C   0  0  0  0  0  0  0  0  0  0  0  0
    0.0000   -4.1250    0.0000 C   0  0  0  0  0  0  0  0  0  0  0  0
    0.7145   -3.7125    0.0000 C   0  0  0  0  0  0  0  0  0  0  0  0
    0.7145   -2.8875    0.0000 C   0  0  0  0  0  0  0  0  0  0  0  0
    1.4289   -2.4750    0.0000 C   0  0  0  0  0  0  0  0  0  0  0  0
    1.4289   -1.6500    0.0000 C   0  0  3  0  0  0  0  0  0  0  0  0
    0.7145   -1.2375    0.0000 N   0  0  0  0  0  0  0  0  0  0  0  0
    0.7145   -0.4125    0.0000 C   0  0  0  0  0  0  0  0  0  0  0  0
    1.4289    0.0000    0.0000 C   0  0  0  0  0  0  0  0  0  0  0  0
    2.1434   -0.4125    0.0000 C   0  0  0  0  0  0  0  0  0  0  0  0
    2.8579    0.0000    0.0000 C   0  0  0  0  0  0  0  0  0  0  0  0
    3.5724   -0.4125    0.0000 C   0  0  0  0  0  0  0  0  0  0  0  0
    4.2868   -0.0000    0.0000 O   0  0  0  0  0  0  0  0  0  0  0  0
    4.2868    0.8250    0.0000 C   0  0  0  0  0  0  0  0  0  0  0  0
    3.5724   -1.2375    0.0000 C   0  0  0  0  0  0  0  0  0  0  0  0
    4.2868   -1.6500    0.0000 O   0  0  0  0  0  0  0  0  0  0  0  0
    4.2868   -2.4750    0.0000 C   0  0  0  0  0  0  0  0  0  0  0  0
    2.8579   -1.6500    0.0000 C   0  0  0  0  0  0  0  0  0  0  0  0
    2.1434   -1.2375    0.0000 C   0  0  0  0  0  0  0  0  0  0  0  0
    1.4289   -4.1250    0.0000 C   0  0  0  0  0  0  0  0  0  0  0  0
    1.4289   -4.9500    0.0000 C   0  0  0  0  0  0  0  0  0  0  0  0
  1  2  1  0  0  0  0
  2  3  1  0  0  0  0
  3  4  2  0  0  0  0
  3 24  1  0  0  0  0
  4  5  1  0  0  0  0
  5  6  2  0  0  0  0
  6  7  1  0  0  0  0
  6 23  1  0  0  0  0
  7  8  1  0  0  0  0
  8  9  1  0  0  0  0
  9 10  1  0  0  0  0
  9 22  1  0  0  0  0
 10 11  1  0  0  0  0
 11 12  1  0  0  0  0
 12 13  1  0  0  0  0
 13 14  2  0  0  0  0
 13 22  1  0  0  0  0
 14 15  1  0  0  0  0
 15 16  1  0  0  0  0
 15 18  2  0  0  0  0
 16 17  1  0  0  0  0
 18 19  1  0  0  0  0
 18 21  1  0  0  0  0
 19 20  1  0  0  0  0
 21 22  2  0  0  0  0
 23 24  2  0  0  0  0
M  END
$$$$

 OpenBabel12191814062D

 26 28  0  0  0  0  0  0  0  0999 V2000
   -3.5724   -3.7125    0.0000 C   0  0  0  0  0  0  0  0  0  0  0  0
   -2.8579   -4.1250    0.0000 O   0  0  0  0  0  0  0  0  0  0  0  0
   -2.8579   -4.9500    0.0000 C   0  0  0  0  0  0  0  0  0  0  0  0
   -2.1434   -5.3625    0.0000 C   0  0  0  0  0  0  0  0  0  0  0  0
   -2.1434   -6.1875    0.0000 C   0  0  0  0  0  0  0  0  0  0  0  0
   -2.8579   -6.6000    0.0000 C   0  0  0  0  0  0  0  0  0  0  0  0
   -2.8579   -7.4250    0.0000 C   0  0  0  0  0  0  0  0  0  0  0  0
   -3.5724   -7.8375    0.0000 C   0  0  0  0  0  0  0  0  0  0  0  0
   -3.5724   -8.6625    0.0000 C   0  0  0  0  0  0  0  0  0  0  0  0
   -4.2868   -9.0750    0.0000 N   0  0  0  0  0  0  0  0  0  0  0  0
   -4.2868   -9.9000    0.0000 C   0  0  0  0  0  0  0  0  0  0  0  0
   -5.0013  -10.3125    0.0000 C   0  0  0  0  0  0  0  0  0  0  0  0
   -5.7158   -9.9000    0.0000 C   0  0  0  0  0  0  0  0  0  0  0  0
   -6.4302  -10.3125    0.0000 C   0  0  0  0  0  0  0  0  0  0  0  0
   -6.4302  -11.1375    0.0000 C   0  0  0  0  0  0  0  0  0  0  0  0
   -5.7158  -11.5500    0.0000 C   0  0  0  0  0  0  0  0  0  0  0  0
   -5.7158  -12.3750    0.0000 C   0  0  0  0  0  0  0  0  0  0  0  0
   -6.4302  -12.7875    0.0000 C   0  0  0  0  0  0  0  0  0  0  0  0
   -7.1447  -12.3750    0.0000 C   0  0  0  0  0  0  0  0  0  0  0  0
   -7.1447  -11.5500    0.0000 C   0  0  0  0  0  0  0  0  0  0  0  0
   -5.7158   -9.0750    0.0000 C   0  0  0  0  0  0  0  0  0  0  0  0
   -5.0013   -8.6625    0.0000 C   0  0  0  0  0  0  0  0  0  0  0  0
   -3.5724   -6.1875    0.0000 C   0  0  0  0  0  0  0  0  0  0  0  0
   -3.5724   -5.3625    0.0000 C   0  0  0  0  0  0  0  0  0  0  0  0
   -4.2868   -4.9500    0.0000 O   0  0  0  0  0  0  0  0  0  0  0  0
   -4.2868   -4.1250    0.0000 C   0  0  0  0  0  0  0  0  0  0  0  0
  1  2  1  0  0  0  0
  2  3  1  0  0  0  0
  3  4  2  0  0  0  0
  3 24  1  0  0  0  0
  4  5  1  0  0  0  0
  5  6  2  0  0  0  0
  6  7  1  0  0  0  0
  6 23  1  0  0  0  0
  7  8  1  0  0  0  0
  8  9  1  0  0  0  0
  9 10  1  0  0  0  0
 10 11  1  0  0  0  0
 10 22  1  0  0  0  0
 11 12  1  0  0  0  0
 12 13  1  0  0  0  0
 13 14  1  0  0  0  0
 13 21  1  0  0  0  0
 14 15  1  0  0  0  0
 15 16  2  0  0  0  0
 15 20  1  0  0  0  0
 16 17  1  0  0  0  0
 17 18  2  0  0  0  0
 18 19  1  0  0  0  0
 19 20  2  0  0  0  0
 21 22  1  0  0  0  0
 23 24  2  0  0  0  0
 24 25  1  0  0  0  0
 25 26  1  0  0  0  0
M  END
$$$$

 OpenBabel12191814062D

 39 44  0  0  0  0  0  0  0  0999 V2000
   -6.6320   -6.0177    0.0000 C   0  0  0  0  0  0  0  0  0  0  0  0
   -7.0445   -5.3033    0.0000 O   0  0  0  0  0  0  0  0  0  0  0  0
   -6.6320   -4.5888    0.0000 C   0  0  0  0  0  0  0  0  0  0  0  0
   -7.0445   -3.8743    0.0000 C   0  0  0  0  0  0  0  0  0  0  0  0
   -6.6320   -3.1599    0.0000 C   0  0  0  0  0  0  0  0  0  0  0  0
   -5.8070   -3.1599    0.0000 C   0  0  0  0  0  0  0  0  0  0  0  0
   -5.3945   -2.4454    0.0000 C   0  0  0  0  0  0  0  0  0  0  0  0
   -4.5695   -2.4454    0.0000 C   0  0  0  0  0  0  0  0  0  0  0  0
   -4.1570   -1.7309    0.0000 N   0  0  0  0  0  0  0  0  0  0  0  0
   -4.5695   -1.0164    0.0000 C   0  0  0  0  0  0  0  0  0  0  0  0
   -3.3320   -1.7309    0.0000 C   0  0  0  0  0  0  0  0  0  0  0  0
   -2.9195   -1.0164    0.0000 C   0  0  0  0  0  0  0  0  0  0  0  0
   -2.5070   -0.3020    0.0000 C   0  0  0  0  0  0  0  0  0  0  0  0
   -2.0945    0.4125    0.0000 C   0  0  0  0  0  0  0  0  0  0  0  0
   -1.2695    0.4125    0.0000 N   0  0  0  0  0  0  0  0  0  0  0  0
   -0.7846   -0.2549    0.0000 C   0  0  0  0  0  0  0  0  0  0  0  0
   -1.0396   -1.0396    0.0000 O   0  0  0  0  0  0  0  0  0  0  0  0
   -0.0000   -0.0000    0.0000 C   0  0  3  0  0  0  0  0  0  0  0  0
    0.0000    0.8250    0.0000 C   0  0  3  0  0  0  0  0  0  0  0  0
    0.7145    1.2375    0.0000 C   0  0  3  0  0  0  0  0  0  0  0  0
    1.4289    0.8250    0.0000 C   0  0  0  0  0  0  0  0  0  0  0  0
    2.1434    1.2375    0.0000 C   0  0  0  0  0  0  0  0  0  0  0  0
    2.8579    0.8250    0.0000 C   0  0  0  0  0  0  0  0  0  0  0  0
    2.8579   -0.0000    0.0000 C   0  0  0  0  0  0  0  0  0  0  0  0
    2.1434   -0.4125    0.0000 C   0  0  0  0  0  0  0  0  0  0  0  0
    1.4289   -0.0000    0.0000 C   0  0  0  0  0  0  0  0  0  0  0  0
    0.7145   -0.4125    0.0000 C   0  0  3  0  0  0  0  0  0  0  0  0
    0.8520    0.1375    0.0000 C   0  0  0  0  0  0  0  0  0  0  0  0
    0.1375   -0.2750    0.0000 C   0  0  0  0  0  0  0  0  0  0  0  0
   -0.5770    0.1375    0.0000 C   0  0  0  0  0  0  0  0  0  0  0  0
   -0.4945    0.8800    0.0000 C   0  0  0  0  0  0  0  0  0  0  0  0
    0.1375    1.3750    0.0000 C   0  0  0  0  0  0  0  0  0  0  0  0
    0.8520    0.9625    0.0000 C   0  0  0  0  0  0  0  0  0  0  0  0
   -0.7846    1.0799    0.0000 C   0  0  0  0  0  0  0  0  0  0  0  0
   -1.0396    1.8646    0.0000 O   0  0  0  0  0  0  0  0  0  0  0  0
   -5.3945   -3.8743    0.0000 C   0  0  0  0  0  0  0  0  0  0  0  0
   -5.8070   -4.5888    0.0000 C   0  0  0  0  0  0  0  0  0  0  0  0
   -5.3945   -5.3033    0.0000 O   0  0  0  0  0  0  0  0  0  0  0  0
   -5.8070   -6.0177    0.0000 C   0  0  0  0  0  0  0  0  0  0  0  0
  1  2  1  0  0  0  0
  2  3  1  0  0  0  0
  3  4  2  0  0  0  0
  3 37  1  0  0  0  0
  4  5  1  0  0  0  0
  5  6  2  0  0  0  0
  6  7  1  0  0  0  0
  6 36  1  0  0  0  0
  7  8  1  0  0  0  0
  8  9  1  0  0  0  0
  9 10  1  0  0  0  0
  9 11  1  0  0  0  0
 11 12  1  0  0  0  0
 12 13  3  0  0  0  0
 13 14  1  0  0  0  0
 14 15  1  0  0  0  0
 15 16  1  0  0  0  0
 15 34  1  0  0  0  0
 16 17  2  0  0  0  0
 16 18  1  0  0  0  0
 18 19  1  0  0  0  0
 18 27  1  0  0  0  0
 19 20  1  0  0  0  0
 19 34  1  0  0  0  0
 20 21  1  0  0  0  0
 20 33  1  0  0  0  0
 21 22  2  0  0  0  0
 21 26  1  0  0  0  0
 22 23  1  0  0  0  0
 23 24  2  0  0  0  0
 24 25  1  0  0  0  0
 25 26  2  0  0  0  0
 26 27  1  0  0  0  0
 27 28  1  0  0  0  0
 28 29  2  0  0  0  0
 28 33  1  0  0  0  0
 29 30  1  0  0  0  0
 30 31  2  0  0  0  0
 31 32  1  0  0  0  0
 32 33  2  0  0  0  0
 34 35  2  0  0  0  0
 36 37  2  0  0  0  0
 37 38  1  0  0  0  0
 38 39  1  0  0  0  0
M  END
$$$$

 OpenBabel12191814062D

 44 48  0  0  0  0  0  0  0  0999 V2000
  -10.7171   -0.4125    0.0000 C   0  0  0  0  0  0  0  0  0  0  0  0
  -10.0026   -0.0000    0.0000 O   0  0  0  0  0  0  0  0  0  0  0  0
   -9.2881   -0.4125    0.0000 C   0  0  0  0  0  0  0  0  0  0  0  0
   -8.5737   -0.0000    0.0000 C   0  0  0  0  0  0  0  0  0  0  0  0
   -7.8592   -0.4125    0.0000 C   0  0  0  0  0  0  0  0  0  0  0  0
   -7.8592   -1.2375    0.0000 C   0  0  0  0  0  0  0  0  0  0  0  0
   -7.1447   -1.6500    0.0000 C   0  0  0  0  0  0  0  0  0  0  0  0
   -7.1447   -2.4750    0.0000 C   0  0  0  0  0  0  0  0  0  0  0  0
   -6.4302   -2.8875    0.0000 N   0  0  0  0  0  0  0  0  0  0  0  0
   -6.4302   -3.7125    0.0000 C   0  0  0  0  0  0  0  0  0  0  0  0
   -5.7158   -2.4750    0.0000 C   0  0  0  0  0  0  0  0  0  0  0  0
   -5.7158   -1.6500    0.0000 C   0  0  0  0  0  0  0  0  0  0  0  0
   -5.0013   -1.2375    0.0000 C   0  0  0  0  0  0  0  0  0  0  0  0
   -5.0013   -0.4125    0.0000 C   0  0  0  0  0  0  0  0  0  0  0  0
   -4.2868   -0.0000    0.0000 C   0  0  0  0  0  0  0  0  0  0  0  0
   -3.5724   -0.4125    0.0000 C   0  0  0  0  0  0  0  0  0  0  0  0
   -2.8579   -0.0000    0.0000 N   0  0  0  0  0  0  0  0  0  0  0  0
   -2.1434   -0.4125    0.0000 C   0  0  0  0  0  0  0  0  0  0  0  0
   -2.1434   -1.2375    0.0000 O   0  0  0  0  0  0  0  0  0  0  0  0
   -1.4289   -0.0000    0.0000 C   0  0  0  0  0  0  0  0  0  0  0  0
   -1.4289    0.8250    0.0000 C   0  0  0  0  0  0  0  0  0  0  0  0
   -0.7145    1.2375    0.0000 C   0  0  0  0  0  0  0  0  0  0  0  0
    0.0000    0.8250    0.0000 C   0  0  0  0  0  0  0  0  0  0  0  0
    0.0000   -0.0000    0.0000 C   0  0  0  0  0  0  0  0  0  0  0  0
   -0.7145   -0.4125    0.0000 C   0  0  0  0  0  0  0  0  0  0  0  0
   -0.7145   -1.2375    0.0000 N   0  0  0  0  0  0  0  0  0  0  0  0
    0.0000   -1.6500    0.0000 C   0  0  0  0  0  0  0  0  0  0  0  0
    0.0000   -2.4750    0.0000 O   0  0  0  0  0  0  0  0  0  0  0  0
    0.7145   -1.2375    0.0000 C   0  0  0  0  0  0  0  0  0  0  0  0
    0.7145   -0.4125    0.0000 C   0  0  0  0  0  0  0  0  0  0  0  0
    1.4289    0.0000    0.0000 N   0  0  0  0  0  0  0  0  0  0  0  0
    2.1434   -0.4125    0.0000 C   0  0  0  0  0  0  0  0  0  0  0  0
    2.8579    0.0000    0.0000 C   0  0  0  0  0  0  0  0  0  0  0  0
    3.5724   -0.4125    0.0000 C   0  0  0  0  0  0  0  0  0  0  0  0
    3.5724   -1.2375    0.0000 C   0  0  0  0  0  0  0  0  0  0  0  0
    2.8579   -1.6500    0.0000 C   0  0  0  0  0  0  0  0  0  0  0  0
    2.1434   -1.2375    0.0000 C   0  0  0  0  0  0  0  0  0  0  0  0
    1.4289   -1.6500    0.0000 C   0  0  0  0  0  0  0  0  0  0  0  0
   -3.5724   -1.2375    0.0000 C   0  0  0  0  0  0  0  0  0  0  0  0
   -4.2868   -1.6500    0.0000 C   0  0  0  0  0  0  0  0  0  0  0  0
   -8.5737   -1.6500    0.0000 C   0  0  0  0  0  0  0  0  0  0  0  0
   -9.2881   -1.2375    0.0000 C   0  0  0  0  0  0  0  0  0  0  0  0
  -10.0026   -1.6500    0.0000 O   0  0  0  0  0  0  0  0  0  0  0  0
  -10.7171   -1.2375    0.0000 C   0  0  0  0  0  0  0  0  0  0  0  0
  1  2  1  0  0  0  0
  2  3  1  0  0  0  0
  3  4  2  0  0  0  0
  3 42  1  0  0  0  0
  4  5  1  0  0  0  0
  5  6  2  0  0  0  0
  6  7  1  0  0  0  0
  6 41  1  0  0  0  0
  7  8  1  0  0  0  0
  8  9  1  0  0  0  0
  9 10  1  0  0  0  0
  9 11  1  0  0  0  0
 11 12  1  0  0  0  0
 12 13  1  0  0  0  0
 13 14  2  0  0  0  0
 13 40  1  0  0  0  0
 14 15  1  0  0  0  0
 15 16  2  0  0  0  0
 16 17  1  0  0  0  0
 16 39  1  0  0  0  0
 17 18  1  0  0  0  0
 18 19  2  0  0  0  0
 18 20  1  0  0  0  0
 20 21  2  0  0  0  0
 20 25  1  0  0  0  0
 21 22  1  0  0  0  0
 22 23  2  0  0  0  0
 23 24  1  0  0  0  0
 24 25  2  0  0  0  0
 25 26  1  0  0  0  0
 26 27  1  0  0  0  0
 27 28  2  0  0  0  0
 27 29  1  0  0  0  0
 29 30  2  0  0  0  0
 29 38  1  0  0  0  0
 30 31  1  0  0  0  0
 31 32  2  0  0  0  0
 32 33  1  0  0  0  0
 32 37  1  0  0  0  0
 33 34  2  0  0  0  0
 34 35  1  0  0  0  0
 35 36  2  0  0  0  0
 36 37  1  0  0  0  0
 37 38  2  0  0  0  0
 39 40  2  0  0  0  0
 41 42  2  0  0  0  0
 42 43  1  0  0  0  0
 43 44  1  0  0  0  0
M  END
$$$$

 OpenBabel12191814062D

 35 36  0  0  0  0  0  0  0  0999 V2000
   -2.1434   -3.7125    0.0000 C   0  0  0  0  0  0  0  0  0  0  0  0
   -1.4289   -3.3000    0.0000 O   0  0  0  0  0  0  0  0  0  0  0  0
   -0.7145   -3.7125    0.0000 C   0  0  0  0  0  0  0  0  0  0  0  0
    0.0000   -3.3000    0.0000 C   0  0  0  0  0  0  0  0  0  0  0  0
    0.7145   -3.7125    0.0000 C   0  0  0  0  0  0  0  0  0  0  0  0
    0.7145   -4.5375    0.0000 C   0  0  0  0  0  0  0  0  0  0  0  0
    1.4289   -4.9500    0.0000 C   0  0  0  0  0  0  0  0  0  0  0  0
    2.1434   -4.5375    0.0000 C   0  0  0  0  0  0  0  0  0  0  0  0
    2.8579   -4.9500    0.0000 N   0  0  0  0  0  0  0  0  0  0  0  0
    2.8579   -5.7750    0.0000 C   0  0  0  0  0  0  0  0  0  0  0  0
    3.5724   -4.5375    0.0000 C   0  0  0  0  0  0  0  0  0  0  0  0
    4.2868   -4.9500    0.0000 C   0  0  0  0  0  0  0  0  0  0  0  0
    5.0013   -4.5375    0.0000 C   0  0  0  0  0  0  0  0  0  0  0  0
    5.7158   -4.9500    0.0000 C   0  0  3  0  0  0  0  0  0  0  0  0
    5.3033   -5.6645    0.0000 C   0  0  0  0  0  0  0  0  0  0  0  0
    4.8908   -6.3789    0.0000 N   0  0  0  0  0  0  0  0  0  0  0  0
    6.1283   -4.2355    0.0000 C   0  0  0  0  0  0  0  0  0  0  0  0
    6.9533   -4.2355    0.0000 C   0  0  0  0  0  0  0  0  0  0  0  0
    5.7158   -3.5211    0.0000 C   0  0  0  0  0  0  0  0  0  0  0  0
    6.4302   -5.3625    0.0000 C   0  0  0  0  0  0  0  0  0  0  0  0
    7.1447   -4.9500    0.0000 C   0  0  0  0  0  0  0  0  0  0  0  0
    7.8592   -5.3625    0.0000 C   0  0  0  0  0  0  0  0  0  0  0  0
    8.5737   -4.9500    0.0000 O   0  0  0  0  0  0  0  0  0  0  0  0
    9.2881   -5.3625    0.0000 C   0  0  0  0  0  0  0  0  0  0  0  0
    7.8592   -6.1875    0.0000 C   0  0  0  0  0  0  0  0  0  0  0  0
    8.5737   -6.6000    0.0000 O   0  0  0  0  0  0  0  0  0  0  0  0
    9.2881   -6.1875    0.0000 C   0  0  0  0  0  0  0  0  0  0  0  0
    7.1447   -6.6000    0.0000 C   0  0  0  0  0  0  0  0  0  0  0  0
    7.1447   -7.4250    0.0000 O   0  0  0  0  0  0  0  0  0  0  0  0
    6.4302   -7.8375    0.0000 C   0  0  0  0  0  0  0  0  0  0  0  0
    6.4302   -6.1875    0.0000 C   0  0  0  0  0  0  0  0  0  0  0  0
    0.0000   -4.9500    0.0000 C   0  0  0  0  0  0  0  0  0  0  0  0
   -0.7145   -4.5375    0.0000 C   0  0  0  0  0  0  0  0  0  0  0  0
   -1.4289   -4.9500    0.0000 O   0  0  0  0  0  0  0  0  0  0  0  0
   -2.1434   -4.5375    0.0000 C   0  0  0  0  0  0  0  0  0  0  0  0
  1  2  1  0  0  0  0
  2  3  1  0  0  0  0
  3  4  2  0  0  0  0
  3 33  1  0  0  0  0
  4  5  1  0  0  0  0
  5  6  2  0  0  0  0
  6  7  1  0  0  0  0
  6 32  1  0  0  0  0
  7  8  1  0  0  0  0
  8  9  1  0  0  0  0
  9 10  1  0  0  0  0
  9 11  1  0  0  0  0
 11 12  1  0  0  0  0
 12 13  1  0  0  0  0
 13 14  1  0  0  0  0
 14 15  1  0  0  0  0
 14 17  1  0  0  0  0
 14 20  1  0  0  0  0
 15 16  3  0  0  0  0
 17 18  1  0  0  0  0
 17 19  1  0  0  0  0
 20 21  2  0  0  0  0
 20 31  1  0  0  0  0
 21 22  1  0  0  0  0
 22 23  1  0  0  0  0
 22 25  2  0  0  0  0
 23 24  1  0  0  0  0
 25 26  1  0  0  0  0
 25 28  1  0  0  0  0
 26 27  1  0  0  0  0
 28 29  1  0  0  0  0
 28 31  2  0  0  0  0
 29 30  1  0  0  0  0
 32 33  2  0  0  0  0
 33 34  1  0  0  0  0
 34 35  1  0  0  0  0
M  END
$$$$

 OpenBabel12191814062D

 31 32  0  0  0  0  0  0  0  0999 V2000
   -2.1434   -3.7125    0.0000 C   0  0  0  0  0  0  0  0  0  0  0  0
   -1.4289   -3.3000    0.0000 O   0  0  0  0  0  0  0  0  0  0  0  0
   -0.7145   -3.7125    0.0000 C   0  0  0  0  0  0  0  0  0  0  0  0
    0.0000   -3.3000    0.0000 C   0  0  0  0  0  0  0  0  0  0  0  0
    0.7145   -3.7125    0.0000 C   0  0  0  0  0  0  0  0  0  0  0  0
    0.7145   -4.5375    0.0000 C   0  0  0  0  0  0  0  0  0  0  0  0
    1.4289   -4.9500    0.0000 C   0  0  0  0  0  0  0  0  0  0  0  0
    2.1434   -4.5375    0.0000 C   0  0  0  0  0  0  0  0  0  0  0  0
    2.8579   -4.9500    0.0000 N   0  0  0  0  0  0  0  0  0  0  0  0
    2.8579   -5.7750    0.0000 C   0  0  0  0  0  0  0  0  0  0  0  0
    3.5724   -4.5375    0.0000 C   0  0  0  0  0  0  0  0  0  0  0  0
    4.2868   -4.9500    0.0000 C   0  0  0  0  0  0  0  0  0  0  0  0
    5.0013   -4.5375    0.0000 C   0  0  0  0  0  0  0  0  0  0  0  0
    5.7158   -4.9500    0.0000 C   0  0  3  0  0  0  0  0  0  0  0  0
    5.3033   -5.6645    0.0000 C   0  0  0  0  0  0  0  0  0  0  0  0
    4.8908   -6.3789    0.0000 N   0  0  0  0  0  0  0  0  0  0  0  0
    6.1283   -4.2355    0.0000 C   0  0  0  0  0  0  0  0  0  0  0  0
    6.9533   -4.2355    0.0000 C   0  0  0  0  0  0  0  0  0  0  0  0
    5.7158   -3.5211    0.0000 C   0  0  0  0  0  0  0  0  0  0  0  0
    6.4302   -5.3625    0.0000 C   0  0  0  0  0  0  0  0  0  0  0  0
    7.1447   -4.9500    0.0000 C   0  0  0  0  0  0  0  0  0  0  0  0
    7.8592   -5.3625    0.0000 C   0  0  0  0  0  0  0  0  0  0  0  0
    7.8592   -6.1875    0.0000 C   0  0  0  0  0  0  0  0  0  0  0  0
    8.5737   -6.6000    0.0000 C   0  0  0  0  0  0  0  0  0  0  0  0
    7.1447   -6.6000    0.0000 C   0  0  0  0  0  0  0  0  0  0  0  0
    7.1447   -7.4250    0.0000 C   0  0  0  0  0  0  0  0  0  0  0  0
    6.4302   -6.1875    0.0000 C   0  0  0  0  0  0  0  0  0  0  0  0
    0.0000   -4.9500    0.0000 C   0  0  0  0  0  0  0  0  0  0  0  0
   -0.7145   -4.5375    0.0000 C   0  0  0  0  0  0  0  0  0  0  0  0
   -1.4289   -4.9500    0.0000 O   0  0  0  0  0  0  0  0  0  0  0  0
   -2.1434   -4.5375    0.0000 C   0  0  0  0  0  0  0  0  0  0  0  0
  1  2  1  0  0  0  0
  2  3  1  0  0  0  0
  3  4  2  0  0  0  0
  3 29  1  0  0  0  0
  4  5  1  0  0  0  0
  5  6  2  0  0  0  0
  6  7  1  0  0  0  0
  6 28  1  0  0  0  0
  7  8  1  0  0  0  0
  8  9  1  0  0  0  0
  9 10  1  0  0  0  0
  9 11  1  0  0  0  0
 11 12  1  0  0  0  0
 12 13  1  0  0  0  0
 13 14  1  0  0  0  0
 14 15  1  0  0  0  0
 14 17  1  0  0  0  0
 14 20  1  0  0  0  0
 15 16  3  0  0  0  0
 17 18  1  0  0  0  0
 17 19  1  0  0  0  0
 20 21  2  0  0  0  0
 20 27  1  0  0  0  0
 21 22  1  0  0  0  0
 22 23  2  0  0  0  0
 23 24  1  0  0  0  0
 23 25  1  0  0  0  0
 25 26  1  0  0  0  0
 25 27  2  0  0  0  0
 28 29  2  0  0  0  0
 29 30  1  0  0  0  0
 30 31  1  0  0  0  0
M  END
$$$$

 OpenBabel12191814062D

 31 32  0  0  0  0  0  0  0  0999 V2000
   -2.1434   -3.7125    0.0000 C   0  0  0  0  0  0  0  0  0  0  0  0
   -1.4289   -3.3000    0.0000 O   0  0  0  0  0  0  0  0  0  0  0  0
   -0.7145   -3.7125    0.0000 C   0  0  0  0  0  0  0  0  0  0  0  0
    0.0000   -3.3000    0.0000 C   0  0  0  0  0  0  0  0  0  0  0  0
    0.7145   -3.7125    0.0000 C   0  0  0  0  0  0  0  0  0  0  0  0
    0.7145   -4.5375    0.0000 C   0  0  0  0  0  0  0  0  0  0  0  0
    1.4289   -4.9500    0.0000 C   0  0  0  0  0  0  0  0  0  0  0  0
    2.1434   -4.5375    0.0000 C   0  0  0  0  0  0  0  0  0  0  0  0
    2.8579   -4.9500    0.0000 N   0  0  0  0  0  0  0  0  0  0  0  0
    2.8579   -5.7750    0.0000 C   0  0  0  0  0  0  0  0  0  0  0  0
    3.5724   -4.5375    0.0000 C   0  0  0  0  0  0  0  0  0  0  0  0
    4.2868   -4.9500    0.0000 C   0  0  0  0  0  0  0  0  0  0  0  0
    5.0013   -4.5375    0.0000 C   0  0  0  0  0  0  0  0  0  0  0  0
    5.7158   -4.9500    0.0000 C   0  0  3  0  0  0  0  0  0  0  0  0
    5.3033   -5.6645    0.0000 C   0  0  0  0  0  0  0  0  0  0  0  0
    4.8908   -6.3789    0.0000 N   0  0  0  0  0  0  0  0  0  0  0  0
    6.1283   -4.2355    0.0000 C   0  0  0  0  0  0  0  0  0  0  0  0
    6.9533   -4.2355    0.0000 C   0  0  0  0  0  0  0  0  0  0  0  0
    5.7158   -3.5211    0.0000 C   0  0  0  0  0  0  0  0  0  0  0  0
    6.4302   -5.3625    0.0000 C   0  0  0  0  0  0  0  0  0  0  0  0
    7.1447   -4.9500    0.0000 C   0  0  0  0  0  0  0  0  0  0  0  0
    7.8592   -5.3625    0.0000 C   0  0  0  0  0  0  0  0  0  0  0  0
    7.8592   -6.1875    0.0000 C   0  0  0  0  0  0  0  0  0  0  0  0
    8.5737   -6.6000    0.0000 Cl  0  0  0  0  0  0  0  0  0  0  0  0
    7.1447   -6.6000    0.0000 C   0  0  0  0  0  0  0  0  0  0  0  0
    7.1447   -7.4250    0.0000 Cl  0  0  0  0  0  0  0  0  0  0  0  0
    6.4302   -6.1875    0.0000 C   0  0  0  0  0  0  0  0  0  0  0  0
    0.0000   -4.9500    0.0000 C   0  0  0  0  0  0  0  0  0  0  0  0
   -0.7145   -4.5375    0.0000 C   0  0  0  0  0  0  0  0  0  0  0  0
   -1.4289   -4.9500    0.0000 O   0  0  0  0  0  0  0  0  0  0  0  0
   -2.1434   -4.5375    0.0000 C   0  0  0  0  0  0  0  0  0  0  0  0
  1  2  1  0  0  0  0
  2  3  1  0  0  0  0
  3  4  2  0  0  0  0
  3 29  1  0  0  0  0
  4  5  1  0  0  0  0
  5  6  2  0  0  0  0
  6  7  1  0  0  0  0
  6 28  1  0  0  0  0
  7  8  1  0  0  0  0
  8  9  1  0  0  0  0
  9 10  1  0  0  0  0
  9 11  1  0  0  0  0
 11 12  1  0  0  0  0
 12 13  1  0  0  0  0
 13 14  1  0  0  0  0
 14 15  1  0  0  0  0
 14 17  1  0  0  0  0
 14 20  1  0  0  0  0
 15 16  3  0  0  0  0
 17 18  1  0  0  0  0
 17 19  1  0  0  0  0
 20 21  2  0  0  0  0
 20 27  1  0  0  0  0
 21 22  1  0  0  0  0
 22 23  2  0  0  0  0
 23 24  1  0  0  0  0
 23 25  1  0  0  0  0
 25 26  1  0  0  0  0
 25 27  2  0  0  0  0
 28 29  2  0  0  0  0
 29 30  1  0  0  0  0
 30 31  1  0  0  0  0
M  END
$$$$

 OpenBabel12191814062D

 30 31  0  0  0  0  0  0  0  0999 V2000
   -2.1434   -3.7125    0.0000 C   0  0  0  0  0  0  0  0  0  0  0  0
   -1.4289   -3.3000    0.0000 O   0  0  0  0  0  0  0  0  0  0  0  0
   -0.7145   -3.7125    0.0000 C   0  0  0  0  0  0  0  0  0  0  0  0
    0.0000   -3.3000    0.0000 C   0  0  0  0  0  0  0  0  0  0  0  0
    0.7145   -3.7125    0.0000 C   0  0  0  0  0  0  0  0  0  0  0  0
    0.7145   -4.5375    0.0000 C   0  0  0  0  0  0  0  0  0  0  0  0
    1.4289   -4.9500    0.0000 C   0  0  0  0  0  0  0  0  0  0  0  0
    2.1434   -4.5375    0.0000 C   0  0  0  0  0  0  0  0  0  0  0  0
    2.8579   -4.9500    0.0000 N   0  0  0  0  0  0  0  0  0  0  0  0
    2.8579   -5.7750    0.0000 C   0  0  0  0  0  0  0  0  0  0  0  0
    3.5724   -4.5375    0.0000 C   0  0  0  0  0  0  0  0  0  0  0  0
    4.2868   -4.9500    0.0000 C   0  0  0  0  0  0  0  0  0  0  0  0
    5.0013   -4.5375    0.0000 C   0  0  0  0  0  0  0  0  0  0  0  0
    5.7158   -4.9500    0.0000 C   0  0  3  0  0  0  0  0  0  0  0  0
    5.3033   -5.6645    0.0000 C   0  0  0  0  0  0  0  0  0  0  0  0
    4.8908   -6.3789    0.0000 N   0  0  0  0  0  0  0  0  0  0  0  0
    6.1283   -4.2355    0.0000 C   0  0  0  0  0  0  0  0  0  0  0  0
    6.9533   -4.2355    0.0000 C   0  0  0  0  0  0  0  0  0  0  0  0
    5.7158   -3.5211    0.0000 C   0  0  0  0  0  0  0  0  0  0  0  0
    6.4302   -5.3625    0.0000 C   0  0  0  0  0  0  0  0  0  0  0  0
    7.1447   -4.9500    0.0000 C   0  0  0  0  0  0  0  0  0  0  0  0
    7.8592   -5.3625    0.0000 C   0  0  0  0  0  0  0  0  0  0  0  0
    7.8592   -6.1875    0.0000 C   0  0  0  0  0  0  0  0  0  0  0  0
    8.5737   -6.6000    0.0000 F   0  0  0  0  0  0  0  0  0  0  0  0
    7.1447   -6.6000    0.0000 C   0  0  0  0  0  0  0  0  0  0  0  0
    6.4302   -6.1875    0.0000 C   0  0  0  0  0  0  0  0  0  0  0  0
    0.0000   -4.9500    0.0000 C   0  0  0  0  0  0  0  0  0  0  0  0
   -0.7145   -4.5375    0.0000 C   0  0  0  0  0  0  0  0  0  0  0  0
   -1.4289   -4.9500    0.0000 O   0  0  0  0  0  0  0  0  0  0  0  0
   -2.1434   -4.5375    0.0000 C   0  0  0  0  0  0  0  0  0  0  0  0
  1  2  1  0  0  0  0
  2  3  1  0  0  0  0
  3  4  2  0  0  0  0
  3 28  1  0  0  0  0
  4  5  1  0  0  0  0
  5  6  2  0  0  0  0
  6  7  1  0  0  0  0
  6 27  1  0  0  0  0
  7  8  1  0  0  0  0
  8  9  1  0  0  0  0
  9 10  1  0  0  0  0
  9 11  1  0  0  0  0
 11 12  1  0  0  0  0
 12 13  1  0  0  0  0
 13 14  1  0  0  0  0
 14 15  1  0  0  0  0
 14 17  1  0  0  0  0
 14 20  1  0  0  0  0
 15 16  3  0  0  0  0
 17 18  1  0  0  0  0
 17 19  1  0  0  0  0
 20 21  2  0  0  0  0
 20 26  1  0  0  0  0
 21 22  1  0  0  0  0
 22 23  2  0  0  0  0
 23 24  1  0  0  0  0
 23 25  1  0  0  0  0
 25 26  2  0  0  0  0
 27 28  2  0  0  0  0
 28 29  1  0  0  0  0
 29 30  1  0  0  0  0
M  END
$$$$

 OpenBabel12191814062D

 33 34  0  0  0  0  0  0  0  0999 V2000
   -2.1434   -3.7125    0.0000 C   0  0  0  0  0  0  0  0  0  0  0  0
   -1.4289   -3.3000    0.0000 O   0  0  0  0  0  0  0  0  0  0  0  0
   -0.7145   -3.7125    0.0000 C   0  0  0  0  0  0  0  0  0  0  0  0
    0.0000   -3.3000    0.0000 C   0  0  0  0  0  0  0  0  0  0  0  0
    0.7145   -3.7125    0.0000 C   0  0  0  0  0  0  0  0  0  0  0  0
    0.7145   -4.5375    0.0000 C   0  0  0  0  0  0  0  0  0  0  0  0
    1.4289   -4.9500    0.0000 C   0  0  0  0  0  0  0  0  0  0  0  0
    2.1434   -4.5375    0.0000 C   0  0  0  0  0  0  0  0  0  0  0  0
    2.8579   -4.9500    0.0000 N   0  0  0  0  0  0  0  0  0  0  0  0
    2.8579   -5.7750    0.0000 C   0  0  0  0  0  0  0  0  0  0  0  0
    3.5724   -4.5375    0.0000 C   0  0  0  0  0  0  0  0  0  0  0  0
    4.2868   -4.9500    0.0000 C   0  0  0  0  0  0  0  0  0  0  0  0
    5.0013   -4.5375    0.0000 C   0  0  0  0  0  0  0  0  0  0  0  0
    5.7158   -4.9500    0.0000 C   0  0  3  0  0  0  0  0  0  0  0  0
    5.3033   -5.6645    0.0000 C   0  0  0  0  0  0  0  0  0  0  0  0
    4.8908   -6.3789    0.0000 N   0  0  0  0  0  0  0  0  0  0  0  0
    6.1283   -4.2355    0.0000 C   0  0  0  0  0  0  0  0  0  0  0  0
    6.9533   -4.2355    0.0000 C   0  0  0  0  0  0  0  0  0  0  0  0
    5.7158   -3.5211    0.0000 C   0  0  0  0  0  0  0  0  0  0  0  0
    6.4302   -5.3625    0.0000 C   0  0  0  0  0  0  0  0  0  0  0  0
    7.1447   -4.9500    0.0000 C   0  0  0  0  0  0  0  0  0  0  0  0
    7.8592   -5.3625    0.0000 C   0  0  0  0  0  0  0  0  0  0  0  0
    7.8592   -6.1875    0.0000 C   0  0  0  0  0  0  0  0  0  0  0  0
    8.5737   -6.6000    0.0000 O   0  0  0  0  0  0  0  0  0  0  0  0
    9.2881   -6.1875    0.0000 C   0  0  0  0  0  0  0  0  0  0  0  0
    7.1447   -6.6000    0.0000 C   0  0  0  0  0  0  0  0  0  0  0  0
    7.1447   -7.4250    0.0000 O   0  0  0  0  0  0  0  0  0  0  0  0
    6.4302   -7.8375    0.0000 C   0  0  0  0  0  0  0  0  0  0  0  0
    6.4302   -6.1875    0.0000 C   0  0  0  0  0  0  0  0  0  0  0  0
    0.0000   -4.9500    0.0000 C   0  0  0  0  0  0  0  0  0  0  0  0
   -0.7145   -4.5375    0.0000 C   0  0  0  0  0  0  0  0  0  0  0  0
   -1.4289   -4.9500    0.0000 O   0  0  0  0  0  0  0  0  0  0  0  0
   -2.1434   -4.5375    0.0000 C   0  0  0  0  0  0  0  0  0  0  0  0
  1  2  1  0  0  0  0
  2  3  1  0  0  0  0
  3  4  2  0  0  0  0
  3 31  1  0  0  0  0
  4  5  1  0  0  0  0
  5  6  2  0  0  0  0
  6  7  1  0  0  0  0
  6 30  1  0  0  0  0
  7  8  1  0  0  0  0
  8  9  1  0  0  0  0
  9 10  1  0  0  0  0
  9 11  1  0  0  0  0
 11 12  1  0  0  0  0
 12 13  1  0  0  0  0
 13 14  1  0  0  0  0
 14 15  1  0  0  0  0
 14 17  1  0  0  0  0
 14 20  1  0  0  0  0
 15 16  3  0  0  0  0
 17 18  1  0  0  0  0
 17 19  1  0  0  0  0
 20 21  2  0  0  0  0
 20 29  1  0  0  0  0
 21 22  1  0  0  0  0
 22 23  2  0  0  0  0
 23 24  1  0  0  0  0
 23 26  1  0  0  0  0
 24 25  1  0  0  0  0
 26 27  1  0  0  0  0
 26 29  2  0  0  0  0
 27 28  1  0  0  0  0
 30 31  2  0  0  0  0
 31 32  1  0  0  0  0
 32 33  1  0  0  0  0
M  END
$$$$

 OpenBabel12191814062D

 33 34  0  0  0  0  0  0  0  0999 V2000
   -4.2868   -6.6000    0.0000 C   0  0  0  0  0  0  0  0  0  0  0  0
   -4.2868   -5.7750    0.0000 O   0  0  0  0  0  0  0  0  0  0  0  0
   -3.5724   -5.3625    0.0000 C   0  0  0  0  0  0  0  0  0  0  0  0
   -3.5724   -4.5375    0.0000 C   0  0  0  0  0  0  0  0  0  0  0  0
   -2.8579   -4.1250    0.0000 C   0  0  0  0  0  0  0  0  0  0  0  0
   -2.1434   -4.5375    0.0000 C   0  0  0  0  0  0  0  0  0  0  0  0
   -1.4289   -4.1250    0.0000 C   0  0  0  0  0  0  0  0  0  0  0  0
   -0.7145   -4.5375    0.0000 C   0  0  0  0  0  0  0  0  0  0  0  0
    0.0000   -4.1250    0.0000 N   0  0  0  0  0  0  0  0  0  0  0  0
    0.0000   -3.3000    0.0000 C   0  0  0  0  0  0  0  0  0  0  0  0
    0.7145   -4.5375    0.0000 C   0  0  0  0  0  0  0  0  0  0  0  0
    1.4289   -4.1250    0.0000 C   0  0  0  0  0  0  0  0  0  0  0  0
    2.1434   -4.5375    0.0000 C   0  0  0  0  0  0  0  0  0  0  0  0
    2.8579   -4.1250    0.0000 C   0  0  3  0  0  0  0  0  0  0  0  0
    3.2704   -4.8395    0.0000 C   0  0  0  0  0  0  0  0  0  0  0  0
    3.6829   -5.5539    0.0000 N   0  0  0  0  0  0  0  0  0  0  0  0
    2.4454   -3.4105    0.0000 C   0  0  0  0  0  0  0  0  0  0  0  0
    2.8579   -2.6961    0.0000 C   0  0  0  0  0  0  0  0  0  0  0  0
    1.6204   -3.4105    0.0000 C   0  0  0  0  0  0  0  0  0  0  0  0
    3.5724   -3.7125    0.0000 C   0  0  0  0  0  0  0  0  0  0  0  0
    3.5724   -2.8875    0.0000 C   0  0  0  0  0  0  0  0  0  0  0  0
    4.2868   -2.4750    0.0000 C   0  0  0  0  0  0  0  0  0  0  0  0
    5.0013   -2.8875    0.0000 C   0  0  0  0  0  0  0  0  0  0  0  0
    5.0013   -3.7125    0.0000 C   0  0  0  0  0  0  0  0  0  0  0  0
    4.2868   -4.1250    0.0000 C   0  0  0  0  0  0  0  0  0  0  0  0
    5.7158   -4.1250    0.0000 C   0  0  0  0  0  0  0  0  0  0  0  0
    6.4302   -4.5375    0.0000 F   0  0  0  0  0  0  0  0  0  0  0  0
    5.3033   -4.8395    0.0000 F   0  0  0  0  0  0  0  0  0  0  0  0
    6.1283   -3.4105    0.0000 F   0  0  0  0  0  0  0  0  0  0  0  0
   -2.1434   -5.3625    0.0000 C   0  0  0  0  0  0  0  0  0  0  0  0
   -2.8579   -5.7750    0.0000 C   0  0  0  0  0  0  0  0  0  0  0  0
   -2.8579   -6.6000    0.0000 O   0  0  0  0  0  0  0  0  0  0  0  0
   -3.5724   -7.0125    0.0000 C   0  0  0  0  0  0  0  0  0  0  0  0
  1  2  1  0  0  0  0
  2  3  1  0  0  0  0
  3  4  2  0  0  0  0
  3 31  1  0  0  0  0
  4  5  1  0  0  0  0
  5  6  2  0  0  0  0
  6  7  1  0  0  0  0
  6 30  1  0  0  0  0
  7  8  1  0  0  0  0
  8  9  1  0  0  0  0
  9 10  1  0  0  0  0
  9 11  1  0  0  0  0
 11 12  1  0  0  0  0
 12 13  1  0  0  0  0
 13 14  1  0  0  0  0
 14 15  1  0  0  0  0
 14 17  1  0  0  0  0
 14 20  1  0  0  0  0
 15 16  3  0  0  0  0
 17 18  1  0  0  0  0
 17 19  1  0  0  0  0
 20 21  2  0  0  0  0
 20 25  1  0  0  0  0
 21 22  1  0  0  0  0
 22 23  2  0  0  0  0
 23 24  1  0  0  0  0
 24 25  2  0  0  0  0
 24 26  1  0  0  0  0
 26 27  1  0  0  0  0
 26 28  1  0  0  0  0
 26 29  1  0  0  0  0
 30 31  2  0  0  0  0
 31 32  1  0  0  0  0
 32 33  1  0  0  0  0
M  END
$$$$

 OpenBabel12191814062D

 37 39  0  0  0  0  0  0  0  0999 V2000
   -6.4302   -1.2375    0.0000 C   0  0  0  0  0  0  0  0  0  0  0  0
   -5.7158   -0.8250    0.0000 O   0  0  0  0  0  0  0  0  0  0  0  0
   -5.0013   -1.2375    0.0000 C   0  0  0  0  0  0  0  0  0  0  0  0
   -4.2868   -0.8250    0.0000 C   0  0  0  0  0  0  0  0  0  0  0  0
   -3.5724   -1.2375    0.0000 C   0  0  0  0  0  0  0  0  0  0  0  0
   -3.5724   -2.0625    0.0000 C   0  0  0  0  0  0  0  0  0  0  0  0
   -2.8579   -2.4750    0.0000 C   0  0  0  0  0  0  0  0  0  0  0  0
   -2.1434   -2.0625    0.0000 C   0  0  0  0  0  0  0  0  0  0  0  0
   -1.4289   -2.4750    0.0000 N   0  0  0  0  0  0  0  0  0  0  0  0
   -1.4289   -3.3000    0.0000 C   0  0  0  0  0  0  0  0  0  0  0  0
   -0.7145   -2.0625    0.0000 C   0  0  0  0  0  0  0  0  0  0  0  0
    0.0000   -2.4750    0.0000 C   0  0  0  0  0  0  0  0  0  0  0  0
    0.7145   -2.0625    0.0000 C   0  0  0  0  0  0  0  0  0  0  0  0
    0.7145   -1.2375    0.0000 C   0  0  3  0  0  0  0  0  0  0  0  0
    1.5395   -1.2375    0.0000 C   0  0  0  0  0  0  0  0  0  0  0  0
    1.9520   -1.9520    0.0000 C   0  0  0  0  0  0  0  0  0  0  0  0
    2.7770   -1.9520    0.0000 C   0  0  0  0  0  0  0  0  0  0  0  0
    3.1895   -2.6664    0.0000 C   0  0  0  0  0  0  0  0  0  0  0  0
    2.7770   -3.3809    0.0000 C   0  0  0  0  0  0  0  0  0  0  0  0
    1.9520   -3.3809    0.0000 C   0  0  0  0  0  0  0  0  0  0  0  0
    1.5395   -2.6664    0.0000 C   0  0  0  0  0  0  0  0  0  0  0  0
   -0.1105   -1.2375    0.0000 C   0  0  0  0  0  0  0  0  0  0  0  0
   -0.9355   -1.2375    0.0000 N   0  0  0  0  0  0  0  0  0  0  0  0
    0.7145   -0.4125    0.0000 C   0  0  0  0  0  0  0  0  0  0  0  0
    0.0000   -0.0000    0.0000 C   0  0  0  0  0  0  0  0  0  0  0  0
    0.0000    0.8250    0.0000 C   0  0  0  0  0  0  0  0  0  0  0  0
    0.7145    1.2375    0.0000 C   0  0  0  0  0  0  0  0  0  0  0  0
    0.7145    2.0625    0.0000 O   0  0  0  0  0  0  0  0  0  0  0  0
    0.0000    2.4750    0.0000 C   0  0  0  0  0  0  0  0  0  0  0  0
    1.4289    0.8250    0.0000 C   0  0  0  0  0  0  0  0  0  0  0  0
    2.1434    1.2375    0.0000 O   0  0  0  0  0  0  0  0  0  0  0  0
    2.8579    0.8250    0.0000 C   0  0  0  0  0  0  0  0  0  0  0  0
    1.4289   -0.0000    0.0000 C   0  0  0  0  0  0  0  0  0  0  0  0
   -4.2868   -2.4750    0.0000 C   0  0  0  0  0  0  0  0  0  0  0  0
   -5.0013   -2.0625    0.0000 C   0  0  0  0  0  0  0  0  0  0  0  0
   -5.7158   -2.4750    0.0000 O   0  0  0  0  0  0  0  0  0  0  0  0
   -6.4302   -2.0625    0.0000 C   0  0  0  0  0  0  0  0  0  0  0  0
  1  2  1  0  0  0  0
  2  3  1  0  0  0  0
  3  4  2  0  0  0  0
  3 35  1  0  0  0  0
  4  5  1  0  0  0  0
  5  6  2  0  0  0  0
  6  7  1  0  0  0  0
  6 34  1  0  0  0  0
  7  8  1  0  0  0  0
  8  9  1  0  0  0  0
  9 10  1  0  0  0  0
  9 11  1  0  0  0  0
 11 12  1  0  0  0  0
 12 13  1  0  0  0  0
 13 14  1  0  0  0  0
 14 15  1  0  0  0  0
 14 22  1  0  0  0  0
 14 24  1  0  0  0  0
 15 16  1  0  0  0  0
 16 17  2  0  0  0  0
 16 21  1  0  0  0  0
 17 18  1  0  0  0  0
 18 19  2  0  0  0  0
 19 20  1  0  0  0  0
 20 21  2  0  0  0  0
 22 23  3  0  0  0  0
 24 25  2  0  0  0  0
 24 33  1  0  0  0  0
 25 26  1  0  0  0  0
 26 27  2  0  0  0  0
 27 28  1  0  0  0  0
 27 30  1  0  0  0  0
 28 29  1  0  0  0  0
 30 31  1  0  0  0  0
 30 33  2  0  0  0  0
 31 32  1  0  0  0  0
 34 35  2  0  0  0  0
 35 36  1  0  0  0  0
 36 37  1  0  0  0  0
M  END
$$$$

 OpenBabel12191814062D

 33 35  0  0  0  0  0  0  0  0999 V2000
   -0.5706    1.5678    0.0000 C   0  0  0  0  0  0  0  0  0  0  0  0
    0.1438    1.9803    0.0000 O   0  0  0  0  0  0  0  0  0  0  0  0
    0.8583    1.5678    0.0000 C   0  0  0  0  0  0  0  0  0  0  0  0
    1.5728    1.9803    0.0000 C   0  0  0  0  0  0  0  0  0  0  0  0
    2.2873    1.5678    0.0000 C   0  0  0  0  0  0  0  0  0  0  0  0
    2.2873    0.7428    0.0000 C   0  0  0  0  0  0  0  0  0  0  0  0
    3.0017    0.3303    0.0000 C   0  0  0  0  0  0  0  0  0  0  0  0
    3.7162    0.7428    0.0000 C   0  0  0  0  0  0  0  0  0  0  0  0
    4.4307    0.3303    0.0000 N   0  0  0  0  0  0  0  0  0  0  0  0
    4.4307   -0.4947    0.0000 C   0  0  0  0  0  0  0  0  0  0  0  0
    5.1451    0.7428    0.0000 C   0  0  0  0  0  0  0  0  0  0  0  0
    5.8596    0.3303    0.0000 C   0  0  0  0  0  0  0  0  0  0  0  0
    6.5741    0.7428    0.0000 C   0  0  0  0  0  0  0  0  0  0  0  0
    7.2886    0.3303    0.0000 C   0  0  0  0  0  0  0  0  0  0  0  0
    6.7583   -0.3017    0.0000 C   0  0  0  0  0  0  0  0  0  0  0  0
    7.0404   -1.0770    0.0000 C   0  0  0  0  0  0  0  0  0  0  0  0
    6.5101   -1.7089    0.0000 C   0  0  0  0  0  0  0  0  0  0  0  0
    5.6977   -1.5657    0.0000 C   0  0  0  0  0  0  0  0  0  0  0  0
    5.4155   -0.7904    0.0000 C   0  0  0  0  0  0  0  0  0  0  0  0
    5.9458   -0.1585    0.0000 C   0  0  0  0  0  0  0  0  0  0  0  0
    7.5707    1.1055    0.0000 S   0  0  0  0  0  0  0  0  0  0  0  0
    7.5707    1.9305    0.0000 O   0  0  0  0  0  0  0  0  0  0  0  0
    6.7583    1.2488    0.0000 O   0  0  0  0  0  0  0  0  0  0  0  0
    8.3832    1.2488    0.0000 C   0  0  0  0  0  0  0  0  0  0  0  0
    8.9135    0.6168    0.0000 C   0  0  0  0  0  0  0  0  0  0  0  0
    8.6313   -0.1585    0.0000 C   0  0  0  0  0  0  0  0  0  0  0  0
    7.8189   -0.3017    0.0000 S   0  0  0  0  0  0  0  0  0  0  0  0
    7.2058   -0.8537    0.0000 O   0  0  0  0  0  0  0  0  0  0  0  0
    7.9337   -1.1187    0.0000 O   0  0  0  0  0  0  0  0  0  0  0  0
    1.5728    0.3303    0.0000 C   0  0  0  0  0  0  0  0  0  0  0  0
    0.8583    0.7428    0.0000 C   0  0  0  0  0  0  0  0  0  0  0  0
    0.1438    0.3303    0.0000 O   0  0  0  0  0  0  0  0  0  0  0  0
   -0.5706    0.7428    0.0000 C   0  0  0  0  0  0  0  0  0  0  0  0
  1  2  1  0  0  0  0
  2  3  1  0  0  0  0
  3  4  2  0  0  0  0
  3 31  1  0  0  0  0
  4  5  1  0  0  0  0
  5  6  2  0  0  0  0
  6  7  1  0  0  0  0
  6 30  1  0  0  0  0
  7  8  1  0  0  0  0
  8  9  1  0  0  0  0
  9 10  1  0  0  0  0
  9 11  1  0  0  0  0
 11 12  1  0  0  0  0
 12 13  1  0  0  0  0
 13 14  1  0  0  0  0
 14 15  1  0  0  0  0
 14 21  1  0  0  0  0
 14 27  1  0  0  0  0
 15 16  2  0  0  0  0
 15 20  1  0  0  0  0
 16 17  1  0  0  0  0
 17 18  2  0  0  0  0
 18 19  1  0  0  0  0
 19 20  2  0  0  0  0
 21 22  2  0  0  0  0
 21 23  2  0  0  0  0
 21 24  1  0  0  0  0
 24 25  1  0  0  0  0
 25 26  1  0  0  0  0
 26 27  1  0  0  0  0
 27 28  2  0  0  0  0
 27 29  2  0  0  0  0
 30 31  2  0  0  0  0
 31 32  1  0  0  0  0
 32 33  1  0  0  0  0
M  END
$$$$

 OpenBabel12191814062D

 33 36  0  0  0  0  0  0  0  0999 V2000
   -2.4555   -4.2715    0.0000 C   0  0  0  0  0  0  0  0  0  0  0  0
   -1.7410   -3.8590    0.0000 O   0  0  0  0  0  0  0  0  0  0  0  0
   -1.0266   -4.2715    0.0000 C   0  0  0  0  0  0  0  0  0  0  0  0
   -0.3121   -3.8590    0.0000 C   0  0  0  0  0  0  0  0  0  0  0  0
    0.4024   -4.2715    0.0000 C   0  0  0  0  0  0  0  0  0  0  0  0
    0.4024   -5.0965    0.0000 C   0  0  0  0  0  0  0  0  0  0  0  0
    1.1168   -5.5090    0.0000 C   0  0  0  0  0  0  0  0  0  0  0  0
    1.8313   -5.0965    0.0000 C   0  0  0  0  0  0  0  0  0  0  0  0
    2.5458   -5.5090    0.0000 N   0  0  0  0  0  0  0  0  0  0  0  0
    2.5458   -6.3340    0.0000 C   0  0  0  0  0  0  0  0  0  0  0  0
    3.2603   -5.0965    0.0000 C   0  0  0  0  0  0  0  0  0  0  0  0
    3.9747   -5.5090    0.0000 C   0  0  0  0  0  0  0  0  0  0  0  0
    4.6892   -5.0965    0.0000 C   0  0  0  0  0  0  0  0  0  0  0  0
    5.4037   -5.5090    0.0000 C   0  0  0  0  0  0  0  0  0  0  0  0
    6.2161   -5.6522    0.0000 S   0  0  0  0  0  0  0  0  0  0  0  0
    6.4983   -6.4275    0.0000 C   0  0  0  0  0  0  0  0  0  0  0  0
    5.9680   -7.0594    0.0000 C   0  0  0  0  0  0  0  0  0  0  0  0
    5.1555   -6.9162    0.0000 C   0  0  0  0  0  0  0  0  0  0  0  0
    4.8734   -6.1409    0.0000 S   0  0  0  0  0  0  0  0  0  0  0  0
    5.6858   -4.7337    0.0000 C   0  0  0  0  0  0  0  0  0  0  0  0
    5.1555   -4.1017    0.0000 C   0  0  0  0  0  0  0  0  0  0  0  0
    5.4377   -3.3265    0.0000 C   0  0  0  0  0  0  0  0  0  0  0  0
    6.2502   -3.1832    0.0000 C   0  0  0  0  0  0  0  0  0  0  0  0
    6.5323   -2.4080    0.0000 C   0  0  0  0  0  0  0  0  0  0  0  0
    7.3448   -2.2647    0.0000 C   0  0  0  0  0  0  0  0  0  0  0  0
    7.8751   -2.8967    0.0000 C   0  0  0  0  0  0  0  0  0  0  0  0
    7.5929   -3.6719    0.0000 C   0  0  0  0  0  0  0  0  0  0  0  0
    6.7805   -3.8152    0.0000 C   0  0  0  0  0  0  0  0  0  0  0  0
    6.4983   -4.5904    0.0000 C   0  0  0  0  0  0  0  0  0  0  0  0
   -0.3121   -5.5090    0.0000 C   0  0  0  0  0  0  0  0  0  0  0  0
   -1.0266   -5.0965    0.0000 C   0  0  0  0  0  0  0  0  0  0  0  0
   -1.7410   -5.5090    0.0000 O   0  0  0  0  0  0  0  0  0  0  0  0
   -2.4555   -5.0965    0.0000 C   0  0  0  0  0  0  0  0  0  0  0  0
  1  2  1  0  0  0  0
  2  3  1  0  0  0  0
  3  4  2  0  0  0  0
  3 31  1  0  0  0  0
  4  5  1  0  0  0  0
  5  6  2  0  0  0  0
  6  7  1  0  0  0  0
  6 30  1  0  0  0  0
  7  8  1  0  0  0  0
  8  9  1  0  0  0  0
  9 10  1  0  0  0  0
  9 11  1  0  0  0  0
 11 12  1  0  0  0  0
 12 13  1  0  0  0  0
 13 14  1  0  0  0  0
 14 15  1  0  0  0  0
 14 19  1  0  0  0  0
 14 20  1  0  0  0  0
 15 16  1  0  0  0  0
 16 17  1  0  0  0  0
 17 18  1  0  0  0  0
 18 19  1  0  0  0  0
 20 21  2  0  0  0  0
 20 29  1  0  0  0  0
 21 22  1  0  0  0  0
 22 23  2  0  0  0  0
 23 24  1  0  0  0  0
 23 28  1  0  0  0  0
 24 25  2  0  0  0  0
 25 26  1  0  0  0  0
 26 27  2  0  0  0  0
 27 28  1  0  0  0  0
 28 29  2  0  0  0  0
 30 31  2  0  0  0  0
 31 32  1  0  0  0  0
 32 33  1  0  0  0  0
M  END
$$$$

 OpenBabel12191814062D

 38 43  0  0  0  0  0  0  0  0999 V2000
   -8.6945   -2.4454    0.0000 C   0  0  0  0  0  0  0  0  0  0  0  0
   -8.2820   -1.7309    0.0000 O   0  0  0  0  0  0  0  0  0  0  0  0
   -7.4570   -1.7309    0.0000 C   0  0  0  0  0  0  0  0  0  0  0  0
   -7.0445   -1.0164    0.0000 C   0  0  0  0  0  0  0  0  0  0  0  0
   -6.2195   -1.0164    0.0000 C   0  0  0  0  0  0  0  0  0  0  0  0
   -5.8070   -1.7309    0.0000 C   0  0  0  0  0  0  0  0  0  0  0  0
   -4.9820   -1.7309    0.0000 C   0  0  0  0  0  0  0  0  0  0  0  0
   -4.5695   -1.0164    0.0000 C   0  0  0  0  0  0  0  0  0  0  0  0
   -3.7445   -1.0164    0.0000 N   0  0  0  0  0  0  0  0  0  0  0  0
   -3.3320   -1.7309    0.0000 C   0  0  0  0  0  0  0  0  0  0  0  0
   -3.3320   -0.3020    0.0000 C   0  0  0  0  0  0  0  0  0  0  0  0
   -2.5070   -0.3020    0.0000 C   0  0  0  0  0  0  0  0  0  0  0  0
   -2.0945    0.4125    0.0000 C   0  0  0  0  0  0  0  0  0  0  0  0
   -1.2695    0.4125    0.0000 N   0  0  0  0  0  0  0  0  0  0  0  0
   -0.7846   -0.2549    0.0000 C   0  0  0  0  0  0  0  0  0  0  0  0
   -1.0396   -1.0396    0.0000 O   0  0  0  0  0  0  0  0  0  0  0  0
   -0.0000   -0.0000    0.0000 C   0  0  3  0  0  0  0  0  0  0  0  0
    0.0000    0.8250    0.0000 C   0  0  3  0  0  0  0  0  0  0  0  0
    0.7145    1.2375    0.0000 C   0  0  3  0  0  0  0  0  0  0  0  0
    1.4289    0.8250    0.0000 C   0  0  0  0  0  0  0  0  0  0  0  0
    2.1434    1.2375    0.0000 C   0  0  0  0  0  0  0  0  0  0  0  0
    2.8579    0.8250    0.0000 C   0  0  0  0  0  0  0  0  0  0  0  0
    2.8579   -0.0000    0.0000 C   0  0  0  0  0  0  0  0  0  0  0  0
    2.1434   -0.4125    0.0000 C   0  0  0  0  0  0  0  0  0  0  0  0
    1.4289   -0.0000    0.0000 C   0  0  0  0  0  0  0  0  0  0  0  0
    0.7145   -0.4125    0.0000 C   0  0  3  0  0  0  0  0  0  0  0  0
    0.8520    0.1375    0.0000 C   0  0  0  0  0  0  0  0  0  0  0  0
    0.1375   -0.2750    0.0000 C   0  0  0  0  0  0  0  0  0  0  0  0
   -0.5770    0.1375    0.0000 C   0  0  0  0  0  0  0  0  0  0  0  0
   -0.4945    0.8800    0.0000 C   0  0  0  0  0  0  0  0  0  0  0  0
    0.1375    1.3750    0.0000 C   0  0  0  0  0  0  0  0  0  0  0  0
    0.8520    0.9625    0.0000 C   0  0  0  0  0  0  0  0  0  0  0  0
   -0.7846    1.0799    0.0000 C   0  0  0  0  0  0  0  0  0  0  0  0
   -1.0396    1.8646    0.0000 O   0  0  0  0  0  0  0  0  0  0  0  0
   -6.2195   -2.4454    0.0000 C   0  0  0  0  0  0  0  0  0  0  0  0
   -7.0445   -2.4454    0.0000 C   0  0  0  0  0  0  0  0  0  0  0  0
   -7.4570   -3.1599    0.0000 O   0  0  0  0  0  0  0  0  0  0  0  0
   -8.2820   -3.1599    0.0000 C   0  0  0  0  0  0  0  0  0  0  0  0
  1  2  1  0  0  0  0
  2  3  1  0  0  0  0
  3  4  2  0  0  0  0
  3 36  1  0  0  0  0
  4  5  1  0  0  0  0
  5  6  2  0  0  0  0
  6  7  1  0  0  0  0
  6 35  1  0  0  0  0
  7  8  1  0  0  0  0
  8  9  1  0  0  0  0
  9 10  1  0  0  0  0
  9 11  1  0  0  0  0
 11 12  1  0  0  0  0
 12 13  1  0  0  0  0
 13 14  1  0  0  0  0
 14 15  1  0  0  0  0
 14 33  1  0  0  0  0
 15 16  2  0  0  0  0
 15 17  1  0  0  0  0
 17 18  1  0  0  0  0
 17 26  1  0  0  0  0
 18 19  1  0  0  0  0
 18 33  1  0  0  0  0
 19 20  1  0  0  0  0
 19 32  1  0  0  0  0
 20 21  2  0  0  0  0
 20 25  1  0  0  0  0
 21 22  1  0  0  0  0
 22 23  2  0  0  0  0
 23 24  1  0  0  0  0
 24 25  2  0  0  0  0
 25 26  1  0  0  0  0
 26 27  1  0  0  0  0
 27 28  2  0  0  0  0
 27 32  1  0  0  0  0
 28 29  1  0  0  0  0
 29 30  2  0  0  0  0
 30 31  1  0  0  0  0
 31 32  2  0  0  0  0
 33 34  2  0  0  0  0
 35 36  2  0  0  0  0
 36 37  1  0  0  0  0
 37 38  1  0  0  0  0
M  END
$$$$

 OpenBabel12191814062D

 42 46  0  0  0  0  0  0  0  0999 V2000
    2.8579   -9.9000    0.0000 C   0  0  0  0  0  0  0  0  0  0  0  0
    3.5724  -10.3125    0.0000 O   0  0  0  0  0  0  0  0  0  0  0  0
    4.2868   -9.9000    0.0000 C   0  0  0  0  0  0  0  0  0  0  0  0
    4.2868   -9.0750    0.0000 C   0  0  0  0  0  0  0  0  0  0  0  0
    5.0013   -8.6625    0.0000 C   0  0  0  0  0  0  0  0  0  0  0  0
    5.7158   -9.0750    0.0000 C   0  0  0  0  0  0  0  0  0  0  0  0
    6.4302   -8.6625    0.0000 C   0  0  0  0  0  0  0  0  0  0  0  0
    7.1447   -9.0750    0.0000 C   0  0  0  0  0  0  0  0  0  0  0  0
    7.8592   -8.6625    0.0000 N   0  0  0  0  0  0  0  0  0  0  0  0
    7.8592   -7.8375    0.0000 C   0  0  0  0  0  0  0  0  0  0  0  0
    8.5737   -9.0750    0.0000 C   0  0  0  0  0  0  0  0  0  0  0  0
    9.2881   -8.6625    0.0000 C   0  0  0  0  0  0  0  0  0  0  0  0
   10.0026   -9.0750    0.0000 C   0  0  0  0  0  0  0  0  0  0  0  0
   10.7171   -8.6625    0.0000 O   0  0  0  0  0  0  0  0  0  0  0  0
   11.4315   -9.0750    0.0000 C   0  0  0  0  0  0  0  0  0  0  0  0
   12.1460   -8.6625    0.0000 C   0  0  0  0  0  0  0  0  0  0  0  0
   12.8605   -9.0750    0.0000 C   0  0  0  0  0  0  0  0  0  0  0  0
   12.8605   -9.9000    0.0000 C   0  0  0  0  0  0  0  0  0  0  0  0
   13.5749  -10.3125    0.0000 N   0  0  0  0  0  0  0  0  0  0  0  0
   14.2894   -9.9000    0.0000 C   0  0  0  0  0  0  0  0  0  0  0  0
   15.0039  -10.3125    0.0000 O   0  0  0  0  0  0  0  0  0  0  0  0
   14.2894   -9.0750    0.0000 C   0  0  0  0  0  0  0  0  0  0  0  0
   13.5749   -8.6625    0.0000 C   0  0  0  0  0  0  0  0  0  0  0  0
   13.5749   -7.8375    0.0000 C   0  0  0  0  0  0  0  0  0  0  0  0
   14.2894   -7.4250    0.0000 C   0  0  0  0  0  0  0  0  0  0  0  0
   15.0039   -7.8375    0.0000 C   0  0  0  0  0  0  0  0  0  0  0  0
   15.7184   -7.4250    0.0000 C   0  0  0  0  0  0  0  0  0  0  0  0
   15.7184   -6.6000    0.0000 O   0  0  0  0  0  0  0  0  0  0  0  0
   16.4328   -7.8375    0.0000 C   0  0  0  0  0  0  0  0  0  0  0  0
   17.1473   -7.4250    0.0000 C   0  0  0  0  0  0  0  0  0  0  0  0
   17.8618   -7.8375    0.0000 C   0  0  0  0  0  0  0  0  0  0  0  0
   17.8618   -8.6625    0.0000 C   0  0  0  0  0  0  0  0  0  0  0  0
   17.1473   -9.0750    0.0000 C   0  0  0  0  0  0  0  0  0  0  0  0
   16.4328   -8.6625    0.0000 C   0  0  0  0  0  0  0  0  0  0  0  0
   15.7184   -9.0750    0.0000 N   0  0  0  0  0  0  0  0  0  0  0  0
   15.0039   -8.6625    0.0000 C   0  0  0  0  0  0  0  0  0  0  0  0
   12.1460  -10.3125    0.0000 C   0  0  0  0  0  0  0  0  0  0  0  0
   11.4315   -9.9000    0.0000 C   0  0  0  0  0  0  0  0  0  0  0  0
    5.7158   -9.9000    0.0000 C   0  0  0  0  0  0  0  0  0  0  0  0
    5.0013  -10.3125    0.0000 C   0  0  0  0  0  0  0  0  0  0  0  0
    5.0013  -11.1375    0.0000 O   0  0  0  0  0  0  0  0  0  0  0  0
    4.2868  -11.5500    0.0000 C   0  0  0  0  0  0  0  0  0  0  0  0
  1  2  1  0  0  0  0
  2  3  1  0  0  0  0
  3  4  2  0  0  0  0
  3 40  1  0  0  0  0
  4  5  1  0  0  0  0
  5  6  2  0  0  0  0
  6  7  1  0  0  0  0
  6 39  1  0  0  0  0
  7  8  1  0  0  0  0
  8  9  1  0  0  0  0
  9 10  1  0  0  0  0
  9 11  1  0  0  0  0
 11 12  1  0  0  0  0
 12 13  1  0  0  0  0
 13 14  1  0  0  0  0
 14 15  1  0  0  0  0
 15 16  2  0  0  0  0
 15 38  1  0  0  0  0
 16 17  1  0  0  0  0
 17 18  2  0  0  0  0
 18 19  1  0  0  0  0
 18 37  1  0  0  0  0
 19 20  1  0  0  0  0
 20 21  2  0  0  0  0
 20 22  1  0  0  0  0
 22 23  2  0  0  0  0
 22 36  1  0  0  0  0
 23 24  1  0  0  0  0
 24 25  2  0  0  0  0
 25 26  1  0  0  0  0
 26 27  1  0  0  0  0
 26 36  2  0  0  0  0
 27 28  2  0  0  0  0
 27 29  1  0  0  0  0
 29 30  2  0  0  0  0
 29 34  1  0  0  0  0
 30 31  1  0  0  0  0
 31 32  2  0  0  0  0
 32 33  1  0  0  0  0
 33 34  2  0  0  0  0
 34 35  1  0  0  0  0
 35 36  1  0  0  0  0
 37 38  2  0  0  0  0
 39 40  2  0  0  0  0
 40 41  1  0  0  0  0
 41 42  1  0  0  0  0
M  END
$$$$

 OpenBabel12191814062D

 37 42  0  0  0  0  0  0  0  0999 V2000
   -5.8070   -4.5888    0.0000 C   0  0  0  0  0  0  0  0  0  0  0  0
   -6.2195   -3.8743    0.0000 O   0  0  0  0  0  0  0  0  0  0  0  0
   -5.8070   -3.1599    0.0000 C   0  0  0  0  0  0  0  0  0  0  0  0
   -6.2195   -2.4454    0.0000 C   0  0  0  0  0  0  0  0  0  0  0  0
   -5.8070   -1.7309    0.0000 C   0  0  0  0  0  0  0  0  0  0  0  0
   -4.9820   -1.7309    0.0000 C   0  0  0  0  0  0  0  0  0  0  0  0
   -4.5695   -1.0164    0.0000 C   0  0  0  0  0  0  0  0  0  0  0  0
   -3.7445   -1.0164    0.0000 C   0  0  0  0  0  0  0  0  0  0  0  0
   -3.3320   -0.3020    0.0000 N   0  0  0  0  0  0  0  0  0  0  0  0
   -3.7445    0.4125    0.0000 C   0  0  0  0  0  0  0  0  0  0  0  0
   -2.5070   -0.3020    0.0000 C   0  0  0  0  0  0  0  0  0  0  0  0
   -2.0945    0.4125    0.0000 C   0  0  0  0  0  0  0  0  0  0  0  0
   -1.2695    0.4125    0.0000 N   0  0  0  0  0  0  0  0  0  0  0  0
   -0.7846   -0.2549    0.0000 C   0  0  0  0  0  0  0  0  0  0  0  0
   -1.0396   -1.0396    0.0000 O   0  0  0  0  0  0  0  0  0  0  0  0
   -0.0000   -0.0000    0.0000 C   0  0  3  0  0  0  0  0  0  0  0  0
    0.0000    0.8250    0.0000 C   0  0  3  0  0  0  0  0  0  0  0  0
    0.7145    1.2375    0.0000 C   0  0  3  0  0  0  0  0  0  0  0  0
    1.4289    0.8250    0.0000 C   0  0  0  0  0  0  0  0  0  0  0  0
    2.1434    1.2375    0.0000 C   0  0  0  0  0  0  0  0  0  0  0  0
    2.8579    0.8250    0.0000 C   0  0  0  0  0  0  0  0  0  0  0  0
    2.8579   -0.0000    0.0000 C   0  0  0  0  0  0  0  0  0  0  0  0
    2.1434   -0.4125    0.0000 C   0  0  0  0  0  0  0  0  0  0  0  0
    1.4289   -0.0000    0.0000 C   0  0  0  0  0  0  0  0  0  0  0  0
    0.7145   -0.4125    0.0000 C   0  0  3  0  0  0  0  0  0  0  0  0
    0.8520    0.1375    0.0000 C   0  0  0  0  0  0  0  0  0  0  0  0
    0.1375   -0.2750    0.0000 C   0  0  0  0  0  0  0  0  0  0  0  0
   -0.5770    0.1375    0.0000 C   0  0  0  0  0  0  0  0  0  0  0  0
   -0.4945    0.8800    0.0000 C   0  0  0  0  0  0  0  0  0  0  0  0
    0.1375    1.3750    0.0000 C   0  0  0  0  0  0  0  0  0  0  0  0
    0.8520    0.9625    0.0000 C   0  0  0  0  0  0  0  0  0  0  0  0
   -0.7846    1.0799    0.0000 C   0  0  0  0  0  0  0  0  0  0  0  0
   -1.0396    1.8646    0.0000 O   0  0  0  0  0  0  0  0  0  0  0  0
   -4.5695   -2.4454    0.0000 C   0  0  0  0  0  0  0  0  0  0  0  0
   -4.9820   -3.1599    0.0000 C   0  0  0  0  0  0  0  0  0  0  0  0
   -4.5695   -3.8743    0.0000 O   0  0  0  0  0  0  0  0  0  0  0  0
   -4.9820   -4.5888    0.0000 C   0  0  0  0  0  0  0  0  0  0  0  0
  1  2  1  0  0  0  0
  2  3  1  0  0  0  0
  3  4  2  0  0  0  0
  3 35  1  0  0  0  0
  4  5  1  0  0  0  0
  5  6  2  0  0  0  0
  6  7  1  0  0  0  0
  6 34  1  0  0  0  0
  7  8  1  0  0  0  0
  8  9  1  0  0  0  0
  9 10  1  0  0  0  0
  9 11  1  0  0  0  0
 11 12  1  0  0  0  0
 12 13  1  0  0  0  0
 13 14  1  0  0  0  0
 13 32  1  0  0  0  0
 14 15  2  0  0  0  0
 14 16  1  0  0  0  0
 16 17  1  0  0  0  0
 16 25  1  0  0  0  0
 17 18  1  0  0  0  0
 17 32  1  0  0  0  0
 18 19  1  0  0  0  0
 18 31  1  0  0  0  0
 19 20  2  0  0  0  0
 19 24  1  0  0  0  0
 20 21  1  0  0  0  0
 21 22  2  0  0  0  0
 22 23  1  0  0  0  0
 23 24  2  0  0  0  0
 24 25  1  0  0  0  0
 25 26  1  0  0  0  0
 26 27  2  0  0  0  0
 26 31  1  0  0  0  0
 27 28  1  0  0  0  0
 28 29  2  0  0  0  0
 29 30  1  0  0  0  0
 30 31  2  0  0  0  0
 32 33  2  0  0  0  0
 34 35  2  0  0  0  0
 35 36  1  0  0  0  0
 36 37  1  0  0  0  0
M  END
$$$$

 OpenBabel12191814062D

 41 45  0  0  0  0  0  0  0  0999 V2000
    1.4289   -6.6000    0.0000 C   0  0  0  0  0  0  0  0  0  0  0  0
    2.1434   -6.1875    0.0000 O   0  0  0  0  0  0  0  0  0  0  0  0
    2.8579   -6.6000    0.0000 C   0  0  0  0  0  0  0  0  0  0  0  0
    3.5724   -6.1875    0.0000 C   0  0  0  0  0  0  0  0  0  0  0  0
    4.2868   -6.6000    0.0000 C   0  0  0  0  0  0  0  0  0  0  0  0
    4.2868   -7.4250    0.0000 C   0  0  0  0  0  0  0  0  0  0  0  0
    5.0013   -7.8375    0.0000 C   0  0  0  0  0  0  0  0  0  0  0  0
    5.7158   -7.4250    0.0000 C   0  0  0  0  0  0  0  0  0  0  0  0
    6.4302   -7.8375    0.0000 N   0  0  0  0  0  0  0  0  0  0  0  0
    6.4302   -8.6625    0.0000 C   0  0  0  0  0  0  0  0  0  0  0  0
    7.1447   -7.4250    0.0000 C   0  0  0  0  0  0  0  0  0  0  0  0
    7.8592   -7.8375    0.0000 C   0  0  0  0  0  0  0  0  0  0  0  0
    8.5737   -7.4250    0.0000 O   0  0  0  0  0  0  0  0  0  0  0  0
    9.2881   -7.8375    0.0000 C   0  0  0  0  0  0  0  0  0  0  0  0
   10.0026   -7.4250    0.0000 C   0  0  0  0  0  0  0  0  0  0  0  0
   10.7171   -7.8375    0.0000 C   0  0  0  0  0  0  0  0  0  0  0  0
   10.7171   -8.6625    0.0000 C   0  0  0  0  0  0  0  0  0  0  0  0
   11.4315   -9.0750    0.0000 N   0  0  0  0  0  0  0  0  0  0  0  0
   12.1460   -8.6625    0.0000 C   0  0  0  0  0  0  0  0  0  0  0  0
   12.8605   -9.0750    0.0000 O   0  0  0  0  0  0  0  0  0  0  0  0
   12.1460   -7.8375    0.0000 C   0  0  0  0  0  0  0  0  0  0  0  0
   11.4315   -7.4250    0.0000 C   0  0  0  0  0  0  0  0  0  0  0  0
   11.4315   -6.6000    0.0000 C   0  0  0  0  0  0  0  0  0  0  0  0
   12.1460   -6.1875    0.0000 C   0  0  0  0  0  0  0  0  0  0  0  0
   12.8605   -6.6000    0.0000 N   0  0  0  0  0  0  0  0  0  0  0  0
   13.5749   -6.1875    0.0000 C   0  0  0  0  0  0  0  0  0  0  0  0
   13.5749   -5.3625    0.0000 O   0  0  0  0  0  0  0  0  0  0  0  0
   14.2894   -6.6000    0.0000 C   0  0  0  0  0  0  0  0  0  0  0  0
   15.0039   -6.1875    0.0000 C   0  0  0  0  0  0  0  0  0  0  0  0
   15.7184   -6.6000    0.0000 C   0  0  0  0  0  0  0  0  0  0  0  0
   15.7184   -7.4250    0.0000 C   0  0  0  0  0  0  0  0  0  0  0  0
   15.0039   -7.8375    0.0000 C   0  0  0  0  0  0  0  0  0  0  0  0
   14.2894   -7.4250    0.0000 C   0  0  0  0  0  0  0  0  0  0  0  0
   13.5749   -7.8375    0.0000 N   0  0  0  0  0  0  0  0  0  0  0  0
   12.8605   -7.4250    0.0000 C   0  0  0  0  0  0  0  0  0  0  0  0
   10.0026   -9.0750    0.0000 C   0  0  0  0  0  0  0  0  0  0  0  0
    9.2881   -8.6625    0.0000 C   0  0  0  0  0  0  0  0  0  0  0  0
    3.5724   -7.8375    0.0000 C   0  0  0  0  0  0  0  0  0  0  0  0
    2.8579   -7.4250    0.0000 C   0  0  0  0  0  0  0  0  0  0  0  0
    2.1434   -7.8375    0.0000 O   0  0  0  0  0  0  0  0  0  0  0  0
    1.4289   -7.4250    0.0000 C   0  0  0  0  0  0  0  0  0  0  0  0
  1  2  1  0  0  0  0
  2  3  1  0  0  0  0
  3  4  2  0  0  0  0
  3 39  1  0  0  0  0
  4  5  1  0  0  0  0
  5  6  2  0  0  0  0
  6  7  1  0  0  0  0
  6 38  1  0  0  0  0
  7  8  1  0  0  0  0
  8  9  1  0  0  0  0
  9 10  1  0  0  0  0
  9 11  1  0  0  0  0
 11 12  1  0  0  0  0
 12 13  1  0  0  0  0
 13 14  1  0  0  0  0
 14 15  2  0  0  0  0
 14 37  1  0  0  0  0
 15 16  1  0  0  0  0
 16 17  2  0  0  0  0
 17 18  1  0  0  0  0
 17 36  1  0  0  0  0
 18 19  1  0  0  0  0
 19 20  2  0  0  0  0
 19 21  1  0  0  0  0
 21 22  2  0  0  0  0
 21 35  1  0  0  0  0
 22 23  1  0  0  0  0
 23 24  2  0  0  0  0
 24 25  1  0  0  0  0
 25 26  1  0  0  0  0
 25 35  1  0  0  0  0
 26 27  2  0  0  0  0
 26 28  1  0  0  0  0
 28 29  2  0  0  0  0
 28 33  1  0  0  0  0
 29 30  1  0  0  0  0
 30 31  2  0  0  0  0
 31 32  1  0  0  0  0
 32 33  2  0  0  0  0
 33 34  1  0  0  0  0
 34 35  2  0  0  0  0
 36 37  2  0  0  0  0
 38 39  2  0  0  0  0
 39 40  1  0  0  0  0
 40 41  1  0  0  0  0
M  END
$$$$

 OpenBabel12191814062D

 41 45  0  0  0  0  0  0  0  0999 V2000
    1.4289   -6.6000    0.0000 C   0  0  0  0  0  0  0  0  0  0  0  0
    2.1434   -6.1875    0.0000 O   0  0  0  0  0  0  0  0  0  0  0  0
    2.8579   -6.6000    0.0000 C   0  0  0  0  0  0  0  0  0  0  0  0
    3.5724   -6.1875    0.0000 C   0  0  0  0  0  0  0  0  0  0  0  0
    4.2868   -6.6000    0.0000 C   0  0  0  0  0  0  0  0  0  0  0  0
    4.2868   -7.4250    0.0000 C   0  0  0  0  0  0  0  0  0  0  0  0
    5.0013   -7.8375    0.0000 C   0  0  0  0  0  0  0  0  0  0  0  0
    5.7158   -7.4250    0.0000 C   0  0  0  0  0  0  0  0  0  0  0  0
    6.4302   -7.8375    0.0000 N   0  0  0  0  0  0  0  0  0  0  0  0
    6.4302   -8.6625    0.0000 C   0  0  0  0  0  0  0  0  0  0  0  0
    7.1447   -7.4250    0.0000 C   0  0  0  0  0  0  0  0  0  0  0  0
    7.8592   -7.8375    0.0000 C   0  0  0  0  0  0  0  0  0  0  0  0
    8.5737   -7.4250    0.0000 O   0  0  0  0  0  0  0  0  0  0  0  0
    9.2881   -7.8375    0.0000 C   0  0  0  0  0  0  0  0  0  0  0  0
   10.0026   -7.4250    0.0000 C   0  0  0  0  0  0  0  0  0  0  0  0
   10.7171   -7.8375    0.0000 C   0  0  0  0  0  0  0  0  0  0  0  0
   10.7171   -8.6625    0.0000 C   0  0  0  0  0  0  0  0  0  0  0  0
   11.4315   -9.0750    0.0000 N   0  0  0  0  0  0  0  0  0  0  0  0
   12.1460   -8.6625    0.0000 C   0  0  0  0  0  0  0  0  0  0  0  0
   12.8605   -9.0750    0.0000 O   0  0  0  0  0  0  0  0  0  0  0  0
   12.1460   -7.8375    0.0000 C   0  0  0  0  0  0  0  0  0  0  0  0
   11.4315   -7.4250    0.0000 C   0  0  0  0  0  0  0  0  0  0  0  0
   11.4315   -6.6000    0.0000 C   0  0  0  0  0  0  0  0  0  0  0  0
   12.1460   -6.1875    0.0000 C   0  0  0  0  0  0  0  0  0  0  0  0
   12.8605   -6.6000    0.0000 C   0  0  0  0  0  0  0  0  0  0  0  0
   13.5749   -6.1875    0.0000 C   0  0  0  0  0  0  0  0  0  0  0  0
   13.5749   -5.3625    0.0000 O   0  0  0  0  0  0  0  0  0  0  0  0
   14.2894   -6.6000    0.0000 C   0  0  0  0  0  0  0  0  0  0  0  0
   15.0039   -6.1875    0.0000 C   0  0  0  0  0  0  0  0  0  0  0  0
   15.7184   -6.6000    0.0000 C   0  0  0  0  0  0  0  0  0  0  0  0
   15.7184   -7.4250    0.0000 C   0  0  0  0  0  0  0  0  0  0  0  0
   15.0039   -7.8375    0.0000 C   0  0  0  0  0  0  0  0  0  0  0  0
   14.2894   -7.4250    0.0000 C   0  0  0  0  0  0  0  0  0  0  0  0
   13.5749   -7.8375    0.0000 O   0  0  0  0  0  0  0  0  0  0  0  0
   12.8605   -7.4250    0.0000 C   0  0  0  0  0  0  0  0  0  0  0  0
   10.0026   -9.0750    0.0000 C   0  0  0  0  0  0  0  0  0  0  0  0
    9.2881   -8.6625    0.0000 C   0  0  0  0  0  0  0  0  0  0  0  0
    3.5724   -7.8375    0.0000 C   0  0  0  0  0  0  0  0  0  0  0  0
    2.8579   -7.4250    0.0000 C   0  0  0  0  0  0  0  0  0  0  0  0
    2.1434   -7.8375    0.0000 O   0  0  0  0  0  0  0  0  0  0  0  0
    1.4289   -7.4250    0.0000 C   0  0  0  0  0  0  0  0  0  0  0  0
  1  2  1  0  0  0  0
  2  3  1  0  0  0  0
  3  4  2  0  0  0  0
  3 39  1  0  0  0  0
  4  5  1  0  0  0  0
  5  6  2  0  0  0  0
  6  7  1  0  0  0  0
  6 38  1  0  0  0  0
  7  8  1  0  0  0  0
  8  9  1  0  0  0  0
  9 10  1  0  0  0  0
  9 11  1  0  0  0  0
 11 12  1  0  0  0  0
 12 13  1  0  0  0  0
 13 14  1  0  0  0  0
 14 15  2  0  0  0  0
 14 37  1  0  0  0  0
 15 16  1  0  0  0  0
 16 17  2  0  0  0  0
 17 18  1  0  0  0  0
 17 36  1  0  0  0  0
 18 19  1  0  0  0  0
 19 20  2  0  0  0  0
 19 21  1  0  0  0  0
 21 22  2  0  0  0  0
 21 35  1  0  0  0  0
 22 23  1  0  0  0  0
 23 24  2  0  0  0  0
 24 25  1  0  0  0  0
 25 26  1  0  0  0  0
 25 35  2  0  0  0  0
 26 27  2  0  0  0  0
 26 28  1  0  0  0  0
 28 29  2  0  0  0  0
 28 33  1  0  0  0  0
 29 30  1  0  0  0  0
 30 31  2  0  0  0  0
 31 32  1  0  0  0  0
 32 33  2  0  0  0  0
 33 34  1  0  0  0  0
 34 35  1  0  0  0  0
 36 37  2  0  0  0  0
 38 39  2  0  0  0  0
 39 40  1  0  0  0  0
 40 41  1  0  0  0  0
M  END
$$$$

 OpenBabel12191814062D

 41 45  0  0  0  0  0  0  0  0999 V2000
    1.4289   -6.6000    0.0000 C   0  0  0  0  0  0  0  0  0  0  0  0
    2.1434   -6.1875    0.0000 O   0  0  0  0  0  0  0  0  0  0  0  0
    2.8579   -6.6000    0.0000 C   0  0  0  0  0  0  0  0  0  0  0  0
    3.5724   -6.1875    0.0000 C   0  0  0  0  0  0  0  0  0  0  0  0
    4.2868   -6.6000    0.0000 C   0  0  0  0  0  0  0  0  0  0  0  0
    4.2868   -7.4250    0.0000 C   0  0  0  0  0  0  0  0  0  0  0  0
    5.0013   -7.8375    0.0000 C   0  0  0  0  0  0  0  0  0  0  0  0
    5.7158   -7.4250    0.0000 C   0  0  0  0  0  0  0  0  0  0  0  0
    6.4302   -7.8375    0.0000 N   0  0  0  0  0  0  0  0  0  0  0  0
    6.4302   -8.6625    0.0000 C   0  0  0  0  0  0  0  0  0  0  0  0
    7.1447   -7.4250    0.0000 C   0  0  0  0  0  0  0  0  0  0  0  0
    7.8592   -7.8375    0.0000 C   0  0  0  0  0  0  0  0  0  0  0  0
    8.5737   -7.4250    0.0000 O   0  0  0  0  0  0  0  0  0  0  0  0
    9.2881   -7.8375    0.0000 C   0  0  0  0  0  0  0  0  0  0  0  0
   10.0026   -7.4250    0.0000 C   0  0  0  0  0  0  0  0  0  0  0  0
   10.7171   -7.8375    0.0000 C   0  0  0  0  0  0  0  0  0  0  0  0
   10.7171   -8.6625    0.0000 C   0  0  0  0  0  0  0  0  0  0  0  0
   11.4315   -9.0750    0.0000 N   0  0  0  0  0  0  0  0  0  0  0  0
   12.1460   -8.6625    0.0000 C   0  0  0  0  0  0  0  0  0  0  0  0
   12.8605   -9.0750    0.0000 O   0  0  0  0  0  0  0  0  0  0  0  0
   12.1460   -7.8375    0.0000 C   0  0  0  0  0  0  0  0  0  0  0  0
   11.4315   -7.4250    0.0000 C   0  0  0  0  0  0  0  0  0  0  0  0
   11.4315   -6.6000    0.0000 C   0  0  0  0  0  0  0  0  0  0  0  0
   12.1460   -6.1875    0.0000 C   0  0  0  0  0  0  0  0  0  0  0  0
   12.8605   -6.6000    0.0000 C   0  0  0  0  0  0  0  0  0  0  0  0
   13.5749   -6.1875    0.0000 C   0  0  0  0  0  0  0  0  0  0  0  0
   13.5749   -5.3625    0.0000 O   0  0  0  0  0  0  0  0  0  0  0  0
   14.2894   -6.6000    0.0000 C   0  0  0  0  0  0  0  0  0  0  0  0
   15.0039   -6.1875    0.0000 C   0  0  0  0  0  0  0  0  0  0  0  0
   15.7184   -6.6000    0.0000 C   0  0  0  0  0  0  0  0  0  0  0  0
   15.7184   -7.4250    0.0000 C   0  0  0  0  0  0  0  0  0  0  0  0
   15.0039   -7.8375    0.0000 C   0  0  0  0  0  0  0  0  0  0  0  0
   14.2894   -7.4250    0.0000 C   0  0  0  0  0  0  0  0  0  0  0  0
   13.5749   -7.8375    0.0000 S   0  0  0  0  0  0  0  0  0  0  0  0
   12.8605   -7.4250    0.0000 C   0  0  0  0  0  0  0  0  0  0  0  0
   10.0026   -9.0750    0.0000 C   0  0  0  0  0  0  0  0  0  0  0  0
    9.2881   -8.6625    0.0000 C   0  0  0  0  0  0  0  0  0  0  0  0
    3.5724   -7.8375    0.0000 C   0  0  0  0  0  0  0  0  0  0  0  0
    2.8579   -7.4250    0.0000 C   0  0  0  0  0  0  0  0  0  0  0  0
    2.1434   -7.8375    0.0000 O   0  0  0  0  0  0  0  0  0  0  0  0
    1.4289   -7.4250    0.0000 C   0  0  0  0  0  0  0  0  0  0  0  0
  1  2  1  0  0  0  0
  2  3  1  0  0  0  0
  3  4  2  0  0  0  0
  3 39  1  0  0  0  0
  4  5  1  0  0  0  0
  5  6  2  0  0  0  0
  6  7  1  0  0  0  0
  6 38  1  0  0  0  0
  7  8  1  0  0  0  0
  8  9  1  0  0  0  0
  9 10  1  0  0  0  0
  9 11  1  0  0  0  0
 11 12  1  0  0  0  0
 12 13  1  0  0  0  0
 13 14  1  0  0  0  0
 14 15  2  0  0  0  0
 14 37  1  0  0  0  0
 15 16  1  0  0  0  0
 16 17  2  0  0  0  0
 17 18  1  0  0  0  0
 17 36  1  0  0  0  0
 18 19  1  0  0  0  0
 19 20  2  0  0  0  0
 19 21  1  0  0  0  0
 21 22  2  0  0  0  0
 21 35  1  0  0  0  0
 22 23  1  0  0  0  0
 23 24  2  0  0  0  0
 24 25  1  0  0  0  0
 25 26  1  0  0  0  0
 25 35  2  0  0  0  0
 26 27  2  0  0  0  0
 26 28  1  0  0  0  0
 28 29  2  0  0  0  0
 28 33  1  0  0  0  0
 29 30  1  0  0  0  0
 30 31  2  0  0  0  0
 31 32  1  0  0  0  0
 32 33  2  0  0  0  0
 33 34  1  0  0  0  0
 34 35  1  0  0  0  0
 36 37  2  0  0  0  0
 38 39  2  0  0  0  0
 39 40  1  0  0  0  0
 40 41  1  0  0  0  0
M  END
$$$$

 OpenBabel12191814062D

 40 44  0  0  0  0  0  0  0  0999 V2000
    1.4289   -6.6000    0.0000 C   0  0  0  0  0  0  0  0  0  0  0  0
    2.1434   -6.1875    0.0000 O   0  0  0  0  0  0  0  0  0  0  0  0
    2.8579   -6.6000    0.0000 C   0  0  0  0  0  0  0  0  0  0  0  0
    3.5724   -6.1875    0.0000 C   0  0  0  0  0  0  0  0  0  0  0  0
    4.2868   -6.6000    0.0000 C   0  0  0  0  0  0  0  0  0  0  0  0
    4.2868   -7.4250    0.0000 C   0  0  0  0  0  0  0  0  0  0  0  0
    5.0013   -7.8375    0.0000 C   0  0  0  0  0  0  0  0  0  0  0  0
    5.7158   -7.4250    0.0000 C   0  0  0  0  0  0  0  0  0  0  0  0
    6.4302   -7.8375    0.0000 N   0  0  0  0  0  0  0  0  0  0  0  0
    6.4302   -8.6625    0.0000 C   0  0  0  0  0  0  0  0  0  0  0  0
    7.1447   -7.4250    0.0000 C   0  0  0  0  0  0  0  0  0  0  0  0
    7.8592   -7.8375    0.0000 C   0  0  0  0  0  0  0  0  0  0  0  0
    8.5737   -7.4250    0.0000 O   0  0  0  0  0  0  0  0  0  0  0  0
    9.2881   -7.8375    0.0000 C   0  0  0  0  0  0  0  0  0  0  0  0
   10.0026   -7.4250    0.0000 C   0  0  0  0  0  0  0  0  0  0  0  0
   10.7171   -7.8375    0.0000 C   0  0  0  0  0  0  0  0  0  0  0  0
   10.7171   -8.6625    0.0000 C   0  0  0  0  0  0  0  0  0  0  0  0
   11.4315   -9.0750    0.0000 N   0  0  0  0  0  0  0  0  0  0  0  0
   12.1460   -8.6625    0.0000 C   0  0  0  0  0  0  0  0  0  0  0  0
   12.8605   -9.0750    0.0000 O   0  0  0  0  0  0  0  0  0  0  0  0
   12.1460   -7.8375    0.0000 C   0  0  0  0  0  0  0  0  0  0  0  0
   11.4315   -7.4250    0.0000 C   0  0  0  0  0  0  0  0  0  0  0  0
   11.4315   -6.6000    0.0000 C   0  0  0  0  0  0  0  0  0  0  0  0
   12.1460   -6.1875    0.0000 C   0  0  0  0  0  0  0  0  0  0  0  0
   12.8605   -6.6000    0.0000 C   0  0  0  0  0  0  0  0  0  0  0  0
   13.5749   -6.1875    0.0000 O   0  0  0  0  0  0  0  0  0  0  0  0
   14.2894   -6.6000    0.0000 C   0  0  0  0  0  0  0  0  0  0  0  0
   15.0039   -6.1875    0.0000 C   0  0  0  0  0  0  0  0  0  0  0  0
   15.7184   -6.6000    0.0000 C   0  0  0  0  0  0  0  0  0  0  0  0
   15.7184   -7.4250    0.0000 C   0  0  0  0  0  0  0  0  0  0  0  0
   15.0039   -7.8375    0.0000 C   0  0  0  0  0  0  0  0  0  0  0  0
   14.2894   -7.4250    0.0000 C   0  0  0  0  0  0  0  0  0  0  0  0
   13.5749   -7.8375    0.0000 O   0  0  0  0  0  0  0  0  0  0  0  0
   12.8605   -7.4250    0.0000 C   0  0  0  0  0  0  0  0  0  0  0  0
   10.0026   -9.0750    0.0000 C   0  0  0  0  0  0  0  0  0  0  0  0
    9.2881   -8.6625    0.0000 C   0  0  0  0  0  0  0  0  0  0  0  0
    3.5724   -7.8375    0.0000 C   0  0  0  0  0  0  0  0  0  0  0  0
    2.8579   -7.4250    0.0000 C   0  0  0  0  0  0  0  0  0  0  0  0
    2.1434   -7.8375    0.0000 O   0  0  0  0  0  0  0  0  0  0  0  0
    1.4289   -7.4250    0.0000 C   0  0  0  0  0  0  0  0  0  0  0  0
  1  2  1  0  0  0  0
  2  3  1  0  0  0  0
  3  4  2  0  0  0  0
  3 38  1  0  0  0  0
  4  5  1  0  0  0  0
  5  6  2  0  0  0  0
  6  7  1  0  0  0  0
  6 37  1  0  0  0  0
  7  8  1  0  0  0  0
  8  9  1  0  0  0  0
  9 10  1  0  0  0  0
  9 11  1  0  0  0  0
 11 12  1  0  0  0  0
 12 13  1  0  0  0  0
 13 14  1  0  0  0  0
 14 15  2  0  0  0  0
 14 36  1  0  0  0  0
 15 16  1  0  0  0  0
 16 17  2  0  0  0  0
 17 18  1  0  0  0  0
 17 35  1  0  0  0  0
 18 19  1  0  0  0  0
 19 20  2  0  0  0  0
 19 21  1  0  0  0  0
 21 22  2  0  0  0  0
 21 34  1  0  0  0  0
 22 23  1  0  0  0  0
 23 24  2  0  0  0  0
 24 25  1  0  0  0  0
 25 26  1  0  0  0  0
 25 34  2  0  0  0  0
 26 27  1  0  0  0  0
 27 28  2  0  0  0  0
 27 32  1  0  0  0  0
 28 29  1  0  0  0  0
 29 30  2  0  0  0  0
 30 31  1  0  0  0  0
 31 32  2  0  0  0  0
 32 33  1  0  0  0  0
 33 34  1  0  0  0  0
 35 36  2  0  0  0  0
 37 38  2  0  0  0  0
 38 39  1  0  0  0  0
 39 40  1  0  0  0  0
M  END
$$$$

 OpenBabel12191814062D

 40 44  0  0  0  0  0  0  0  0999 V2000
    1.4289   -6.6000    0.0000 C   0  0  0  0  0  0  0  0  0  0  0  0
    2.1434   -6.1875    0.0000 O   0  0  0  0  0  0  0  0  0  0  0  0
    2.8579   -6.6000    0.0000 C   0  0  0  0  0  0  0  0  0  0  0  0
    3.5724   -6.1875    0.0000 C   0  0  0  0  0  0  0  0  0  0  0  0
    4.2868   -6.6000    0.0000 C   0  0  0  0  0  0  0  0  0  0  0  0
    4.2868   -7.4250    0.0000 C   0  0  0  0  0  0  0  0  0  0  0  0
    5.0013   -7.8375    0.0000 C   0  0  0  0  0  0  0  0  0  0  0  0
    5.7158   -7.4250    0.0000 C   0  0  0  0  0  0  0  0  0  0  0  0
    6.4302   -7.8375    0.0000 N   0  0  0  0  0  0  0  0  0  0  0  0
    6.4302   -8.6625    0.0000 C   0  0  0  0  0  0  0  0  0  0  0  0
    7.1447   -7.4250    0.0000 C   0  0  0  0  0  0  0  0  0  0  0  0
    7.8592   -7.8375    0.0000 C   0  0  0  0  0  0  0  0  0  0  0  0
    8.5737   -7.4250    0.0000 O   0  0  0  0  0  0  0  0  0  0  0  0
    9.2881   -7.8375    0.0000 C   0  0  0  0  0  0  0  0  0  0  0  0
   10.0026   -7.4250    0.0000 C   0  0  0  0  0  0  0  0  0  0  0  0
   10.7171   -7.8375    0.0000 C   0  0  0  0  0  0  0  0  0  0  0  0
   10.7171   -8.6625    0.0000 C   0  0  0  0  0  0  0  0  0  0  0  0
   11.4315   -9.0750    0.0000 N   0  0  0  0  0  0  0  0  0  0  0  0
   12.1460   -8.6625    0.0000 C   0  0  0  0  0  0  0  0  0  0  0  0
   12.8605   -9.0750    0.0000 O   0  0  0  0  0  0  0  0  0  0  0  0
   12.1460   -7.8375    0.0000 C   0  0  0  0  0  0  0  0  0  0  0  0
   11.4315   -7.4250    0.0000 C   0  0  0  0  0  0  0  0  0  0  0  0
   11.4315   -6.6000    0.0000 C   0  0  0  0  0  0  0  0  0  0  0  0
   12.1460   -6.1875    0.0000 C   0  0  0  0  0  0  0  0  0  0  0  0
   12.8605   -6.6000    0.0000 C   0  0  0  0  0  0  0  0  0  0  0  0
   13.5749   -6.1875    0.0000 S   0  0  0  0  0  0  0  0  0  0  0  0
   14.2894   -6.6000    0.0000 C   0  0  0  0  0  0  0  0  0  0  0  0
   15.0039   -6.1875    0.0000 C   0  0  0  0  0  0  0  0  0  0  0  0
   15.7184   -6.6000    0.0000 C   0  0  0  0  0  0  0  0  0  0  0  0
   15.7184   -7.4250    0.0000 C   0  0  0  0  0  0  0  0  0  0  0  0
   15.0039   -7.8375    0.0000 C   0  0  0  0  0  0  0  0  0  0  0  0
   14.2894   -7.4250    0.0000 C   0  0  0  0  0  0  0  0  0  0  0  0
   13.5749   -7.8375    0.0000 N   0  0  0  0  0  0  0  0  0  0  0  0
   12.8605   -7.4250    0.0000 C   0  0  0  0  0  0  0  0  0  0  0  0
   10.0026   -9.0750    0.0000 C   0  0  0  0  0  0  0  0  0  0  0  0
    9.2881   -8.6625    0.0000 C   0  0  0  0  0  0  0  0  0  0  0  0
    3.5724   -7.8375    0.0000 C   0  0  0  0  0  0  0  0  0  0  0  0
    2.8579   -7.4250    0.0000 C   0  0  0  0  0  0  0  0  0  0  0  0
    2.1434   -7.8375    0.0000 O   0  0  0  0  0  0  0  0  0  0  0  0
    1.4289   -7.4250    0.0000 C   0  0  0  0  0  0  0  0  0  0  0  0
  1  2  1  0  0  0  0
  2  3  1  0  0  0  0
  3  4  2  0  0  0  0
  3 38  1  0  0  0  0
  4  5  1  0  0  0  0
  5  6  2  0  0  0  0
  6  7  1  0  0  0  0
  6 37  1  0  0  0  0
  7  8  1  0  0  0  0
  8  9  1  0  0  0  0
  9 10  1  0  0  0  0
  9 11  1  0  0  0  0
 11 12  1  0  0  0  0
 12 13  1  0  0  0  0
 13 14  1  0  0  0  0
 14 15  2  0  0  0  0
 14 36  1  0  0  0  0
 15 16  1  0  0  0  0
 16 17  2  0  0  0  0
 17 18  1  0  0  0  0
 17 35  1  0  0  0  0
 18 19  1  0  0  0  0
 19 20  2  0  0  0  0
 19 21  1  0  0  0  0
 21 22  2  0  0  0  0
 21 34  1  0  0  0  0
 22 23  1  0  0  0  0
 23 24  2  0  0  0  0
 24 25  1  0  0  0  0
 25 26  1  0  0  0  0
 25 34  2  0  0  0  0
 26 27  1  0  0  0  0
 27 28  2  0  0  0  0
 27 32  1  0  0  0  0
 28 29  1  0  0  0  0
 29 30  2  0  0  0  0
 30 31  1  0  0  0  0
 31 32  2  0  0  0  0
 32 33  1  0  0  0  0
 33 34  1  0  0  0  0
 35 36  2  0  0  0  0
 37 38  2  0  0  0  0
 38 39  1  0  0  0  0
 39 40  1  0  0  0  0
M  END
$$$$

 OpenBabel12191814062D

 34 38  0  0  0  0  0  0  0  0999 V2000
   -5.1212    5.0178    0.0000 C   0  0  0  0  0  0  0  0  0  0  0  0
   -4.2962    5.0178    0.0000 O   0  0  0  0  0  0  0  0  0  0  0  0
   -3.8837    4.3034    0.0000 C   0  0  0  0  0  0  0  0  0  0  0  0
   -3.0587    4.3034    0.0000 C   0  0  0  0  0  0  0  0  0  0  0  0
   -2.6462    3.5889    0.0000 C   0  0  0  0  0  0  0  0  0  0  0  0
   -3.0587    2.8744    0.0000 C   0  0  0  0  0  0  0  0  0  0  0  0
   -2.6462    2.1599    0.0000 C   0  0  0  0  0  0  0  0  0  0  0  0
   -1.8212    2.1599    0.0000 C   0  0  0  0  0  0  0  0  0  0  0  0
   -1.4087    1.4455    0.0000 N   0  0  0  0  0  0  0  0  0  0  0  0
   -0.5837    1.4455    0.0000 C   0  0  0  0  0  0  0  0  0  0  0  0
   -0.1712    0.7310    0.0000 C   0  0  0  0  0  0  0  0  0  0  0  0
   -0.5837    0.0165    0.0000 C   0  0  0  0  0  0  0  0  0  0  0  0
   -1.4087    0.0165    0.0000 C   0  0  0  0  0  0  0  0  0  0  0  0
   -1.8212    0.7310    0.0000 C   0  0  0  0  0  0  0  0  0  0  0  0
   -0.1712   -0.6979    0.0000 N   0  0  0  0  0  0  0  0  0  0  0  0
    0.6538   -0.6979    0.0000 C   0  0  0  0  0  0  0  0  0  0  0  0
    1.1387   -0.0305    0.0000 N   0  0  0  0  0  0  0  0  0  0  0  0
    1.9233   -0.2854    0.0000 C   0  0  0  0  0  0  0  0  0  0  0  0
    2.6378    0.1271    0.0000 C   0  0  0  0  0  0  0  0  0  0  0  0
    3.3523   -0.2854    0.0000 C   0  0  0  0  0  0  0  0  0  0  0  0
    3.3523   -1.1104    0.0000 C   0  0  0  0  0  0  0  0  0  0  0  0
    2.6378   -1.5229    0.0000 C   0  0  0  0  0  0  0  0  0  0  0  0
    1.9233   -1.1104    0.0000 C   0  0  0  0  0  0  0  0  0  0  0  0
    1.1387   -1.3654    0.0000 N   0  0  0  0  0  0  0  0  0  0  0  0
    0.8838   -2.1500    0.0000 C   0  0  0  0  0  0  0  0  0  0  0  0
    1.4358   -2.7631    0.0000 C   0  0  0  0  0  0  0  0  0  0  0  0
    2.2428   -2.5916    0.0000 C   0  0  0  0  0  0  0  0  0  0  0  0
    2.7948   -3.2047    0.0000 C   0  0  0  0  0  0  0  0  0  0  0  0
    2.5399   -3.9893    0.0000 C   0  0  0  0  0  0  0  0  0  0  0  0
    3.0919   -4.6024    0.0000 F   0  0  0  0  0  0  0  0  0  0  0  0
    1.7329   -4.1608    0.0000 C   0  0  0  0  0  0  0  0  0  0  0  0
    1.1809   -3.5477    0.0000 C   0  0  0  0  0  0  0  0  0  0  0  0
   -3.8837    2.8744    0.0000 C   0  0  0  0  0  0  0  0  0  0  0  0
   -4.2962    3.5889    0.0000 C   0  0  0  0  0  0  0  0  0  0  0  0
  1  2  1  0  0  0  0
  2  3  1  0  0  0  0
  3  4  2  0  0  0  0
  3 34  1  0  0  0  0
  4  5  1  0  0  0  0
  5  6  2  0  0  0  0
  6  7  1  0  0  0  0
  6 33  1  0  0  0  0
  7  8  1  0  0  0  0
  8  9  1  0  0  0  0
  9 10  1  0  0  0  0
  9 14  1  0  0  0  0
 10 11  1  0  0  0  0
 11 12  1  0  0  0  0
 12 13  1  0  0  0  0
 12 15  1  0  0  0  0
 13 14  1  0  0  0  0
 15 16  1  0  0  0  0
 16 17  2  0  0  0  0
 16 24  1  0  0  0  0
 17 18  1  0  0  0  0
 18 19  2  0  0  0  0
 18 23  1  0  0  0  0
 19 20  1  0  0  0  0
 20 21  2  0  0  0  0
 21 22  1  0  0  0  0
 22 23  2  0  0  0  0
 23 24  1  0  0  0  0
 24 25  1  0  0  0  0
 25 26  1  0  0  0  0
 26 27  2  0  0  0  0
 26 32  1  0  0  0  0
 27 28  1  0  0  0  0
 28 29  2  0  0  0  0
 29 30  1  0  0  0  0
 29 31  1  0  0  0  0
 31 32  2  0  0  0  0
 33 34  2  0  0  0  0
M  END
$$$$

 OpenBabel12191814062D

 40 44  0  0  0  0  0  0  0  0999 V2000
   -6.0697   -5.1774    0.0000 C   0  0  0  0  0  0  0  0  0  0  0  0
   -6.6828   -4.6254    0.0000 O   0  0  0  0  0  0  0  0  0  0  0  0
   -6.5112   -3.8184    0.0000 C   0  0  0  0  0  0  0  0  0  0  0  0
   -7.1243   -3.2664    0.0000 C   0  0  0  0  0  0  0  0  0  0  0  0
   -6.9528   -2.4594    0.0000 C   0  0  0  0  0  0  0  0  0  0  0  0
   -6.1682   -2.2044    0.0000 C   0  0  0  0  0  0  0  0  0  0  0  0
   -5.9966   -1.3975    0.0000 C   0  0  0  0  0  0  0  0  0  0  0  0
   -5.2120   -1.1425    0.0000 C   0  0  0  0  0  0  0  0  0  0  0  0
   -5.0405   -0.3356    0.0000 N   0  0  0  0  0  0  0  0  0  0  0  0
   -5.5925    0.2775    0.0000 C   0  0  0  0  0  0  0  0  0  0  0  0
   -5.1800    0.9920    0.0000 C   0  0  0  0  0  0  0  0  0  0  0  0
   -4.3731    0.8205    0.0000 C   0  0  0  0  0  0  0  0  0  0  0  0
   -4.2868   -0.0000    0.0000 C   0  0  3  0  0  0  0  0  0  0  0  0
   -3.5724   -0.4125    0.0000 C   0  0  0  0  0  0  0  0  0  0  0  0
   -2.8579   -0.0000    0.0000 N   0  0  0  0  0  0  0  0  0  0  0  0
   -2.1434   -0.4125    0.0000 C   0  0  0  0  0  0  0  0  0  0  0  0
   -2.1434   -1.2375    0.0000 O   0  0  0  0  0  0  0  0  0  0  0  0
   -1.4289   -0.0000    0.0000 C   0  0  0  0  0  0  0  0  0  0  0  0
   -1.4289    0.8250    0.0000 C   0  0  0  0  0  0  0  0  0  0  0  0
   -0.7145    1.2375    0.0000 C   0  0  0  0  0  0  0  0  0  0  0  0
    0.0000    0.8250    0.0000 C   0  0  0  0  0  0  0  0  0  0  0  0
    0.0000   -0.0000    0.0000 C   0  0  0  0  0  0  0  0  0  0  0  0
   -0.7145   -0.4125    0.0000 C   0  0  0  0  0  0  0  0  0  0  0  0
   -0.7145   -1.2375    0.0000 N   0  0  0  0  0  0  0  0  0  0  0  0
    0.0000   -1.6500    0.0000 C   0  0  0  0  0  0  0  0  0  0  0  0
    0.0000   -2.4750    0.0000 O   0  0  0  0  0  0  0  0  0  0  0  0
    0.7145   -1.2375    0.0000 C   0  0  0  0  0  0  0  0  0  0  0  0
    0.7145   -0.4125    0.0000 C   0  0  0  0  0  0  0  0  0  0  0  0
    1.4289    0.0000    0.0000 N   0  0  0  0  0  0  0  0  0  0  0  0
    2.1434   -0.4125    0.0000 C   0  0  0  0  0  0  0  0  0  0  0  0
    2.8579    0.0000    0.0000 C   0  0  0  0  0  0  0  0  0  0  0  0
    3.5724   -0.4125    0.0000 C   0  0  0  0  0  0  0  0  0  0  0  0
    3.5724   -1.2375    0.0000 C   0  0  0  0  0  0  0  0  0  0  0  0
    2.8579   -1.6500    0.0000 C   0  0  0  0  0  0  0  0  0  0  0  0
    2.1434   -1.2375    0.0000 C   0  0  0  0  0  0  0  0  0  0  0  0
    1.4289   -1.6500    0.0000 C   0  0  0  0  0  0  0  0  0  0  0  0
   -5.5551   -2.7565    0.0000 C   0  0  0  0  0  0  0  0  0  0  0  0
   -5.7266   -3.5634    0.0000 C   0  0  0  0  0  0  0  0  0  0  0  0
   -5.1135   -4.1155    0.0000 O   0  0  0  0  0  0  0  0  0  0  0  0
   -5.2850   -4.9224    0.0000 C   0  0  0  0  0  0  0  0  0  0  0  0
  1  2  1  0  0  0  0
  2  3  1  0  0  0  0
  3  4  2  0  0  0  0
  3 38  1  0  0  0  0
  4  5  1  0  0  0  0
  5  6  2  0  0  0  0
  6  7  1  0  0  0  0
  6 37  1  0  0  0  0
  7  8  1  0  0  0  0
  8  9  1  0  0  0  0
  9 10  1  0  0  0  0
  9 13  1  0  0  0  0
 10 11  1  0  0  0  0
 11 12  1  0  0  0  0
 12 13  1  0  0  0  0
 13 14  1  0  0  0  0
 14 15  1  0  0  0  0
 15 16  1  0  0  0  0
 16 17  2  0  0  0  0
 16 18  1  0  0  0  0
 18 19  2  0  0  0  0
 18 23  1  0  0  0  0
 19 20  1  0  0  0  0
 20 21  2  0  0  0  0
 21 22  1  0  0  0  0
 22 23  2  0  0  0  0
 23 24  1  0  0  0  0
 24 25  1  0  0  0  0
 25 26  2  0  0  0  0
 25 27  1  0  0  0  0
 27 28  2  0  0  0  0
 27 36  1  0  0  0  0
 28 29  1  0  0  0  0
 29 30  2  0  0  0  0
 30 31  1  0  0  0  0
 30 35  1  0  0  0  0
 31 32  2  0  0  0  0
 32 33  1  0  0  0  0
 33 34  2  0  0  0  0
 34 35  1  0  0  0  0
 35 36  2  0  0  0  0
 37 38  2  0  0  0  0
 38 39  1  0  0  0  0
 39 40  1  0  0  0  0
M  END
$$$$

 OpenBabel12191814062D

 33 36  0  0  0  0  0  0  0  0999 V2000
    0.0000   -6.6000    0.0000 C   0  0  0  0  0  0  0  0  0  0  0  0
   -0.7145   -6.1875    0.0000 O   0  0  0  0  0  0  0  0  0  0  0  0
   -0.7145   -5.3625    0.0000 C   0  0  0  0  0  0  0  0  0  0  0  0
   -1.4289   -4.9500    0.0000 C   0  0  0  0  0  0  0  0  0  0  0  0
   -1.4289   -4.1250    0.0000 C   0  0  0  0  0  0  0  0  0  0  0  0
   -0.7145   -3.7125    0.0000 C   0  0  0  0  0  0  0  0  0  0  0  0
   -0.7145   -2.8875    0.0000 C   0  0  0  0  0  0  0  0  0  0  0  0
    0.0000   -2.4750    0.0000 C   0  0  0  0  0  0  0  0  0  0  0  0
    0.0000   -1.6500    0.0000 N   0  0  0  0  0  0  0  0  0  0  0  0
    0.7145   -1.2375    0.0000 C   0  0  0  0  0  0  0  0  0  0  0  0
    0.7145   -0.4125    0.0000 N   0  0  0  0  0  0  0  0  0  0  0  0
    1.4289    0.0000    0.0000 C   0  0  0  0  0  0  0  0  0  0  0  0
    1.4289    0.8250    0.0000 N   0  0  0  0  0  0  0  0  0  0  0  0
    2.1434    1.2375    0.0000 C   0  0  0  0  0  0  0  0  0  0  0  0
    0.7145    1.2375    0.0000 C   0  0  0  0  0  0  0  0  0  0  0  0
    0.7145    2.0625    0.0000 C   0  0  0  0  0  0  0  0  0  0  0  0
    0.0000    2.4750    0.0000 C   0  0  0  0  0  0  0  0  0  0  0  0
    0.0000    3.3000    0.0000 C   0  0  0  0  0  0  0  0  0  0  0  0
    0.7145    3.7125    0.0000 C   0  0  0  0  0  0  0  0  0  0  0  0
    1.4289    3.3000    0.0000 C   0  0  0  0  0  0  0  0  0  0  0  0
    1.4289    2.4750    0.0000 C   0  0  0  0  0  0  0  0  0  0  0  0
    2.1434   -0.4125    0.0000 C   0  0  0  0  0  0  0  0  0  0  0  0
    2.8579    0.0000    0.0000 C   0  0  0  0  0  0  0  0  0  0  0  0
    2.8579    0.8250    0.0000 C   0  0  0  0  0  0  0  0  0  0  0  0
    3.5724   -0.4125    0.0000 C   0  0  0  0  0  0  0  0  0  0  0  0
    3.5724   -1.2375    0.0000 C   0  0  0  0  0  0  0  0  0  0  0  0
    2.8579   -1.6500    0.0000 C   0  0  0  0  0  0  0  0  0  0  0  0
    2.1434   -1.2375    0.0000 C   0  0  0  0  0  0  0  0  0  0  0  0
    1.4289   -1.6500    0.0000 N   0  0  0  0  0  0  0  0  0  0  0  0
    0.0000   -4.1250    0.0000 C   0  0  0  0  0  0  0  0  0  0  0  0
    0.0000   -4.9500    0.0000 C   0  0  0  0  0  0  0  0  0  0  0  0
    0.7145   -5.3625    0.0000 O   0  0  0  0  0  0  0  0  0  0  0  0
    0.7145   -6.1875    0.0000 C   0  0  0  0  0  0  0  0  0  0  0  0
  1  2  1  0  0  0  0
  2  3  1  0  0  0  0
  3  4  2  0  0  0  0
  3 31  1  0  0  0  0
  4  5  1  0  0  0  0
  5  6  2  0  0  0  0
  6  7  1  0  0  0  0
  6 30  1  0  0  0  0
  7  8  1  0  0  0  0
  8  9  1  0  0  0  0
  9 10  1  0  0  0  0
 10 11  2  0  0  0  0
 10 29  1  0  0  0  0
 11 12  1  0  0  0  0
 12 13  1  0  0  0  0
 12 22  2  0  0  0  0
 13 14  1  0  0  0  0
 13 15  1  0  0  0  0
 15 16  1  0  0  0  0
 16 17  2  0  0  0  0
 16 21  1  0  0  0  0
 17 18  1  0  0  0  0
 18 19  2  0  0  0  0
 19 20  1  0  0  0  0
 20 21  2  0  0  0  0
 22 23  1  0  0  0  0
 22 28  1  0  0  0  0
 23 24  1  0  0  0  0
 23 25  2  0  0  0  0
 25 26  1  0  0  0  0
 26 27  2  0  0  0  0
 27 28  1  0  0  0  0
 28 29  2  0  0  0  0
 30 31  2  0  0  0  0
 31 32  1  0  0  0  0
 32 33  1  0  0  0  0
M  END
$$$$

 OpenBabel12191814062D

 33 36  0  0  0  0  0  0  0  0999 V2000
    0.0000   -6.6000    0.0000 C   0  0  0  0  0  0  0  0  0  0  0  0
   -0.7145   -6.1875    0.0000 O   0  0  0  0  0  0  0  0  0  0  0  0
   -0.7145   -5.3625    0.0000 C   0  0  0  0  0  0  0  0  0  0  0  0
   -1.4289   -4.9500    0.0000 C   0  0  0  0  0  0  0  0  0  0  0  0
   -1.4289   -4.1250    0.0000 C   0  0  0  0  0  0  0  0  0  0  0  0
   -0.7145   -3.7125    0.0000 C   0  0  0  0  0  0  0  0  0  0  0  0
   -0.7145   -2.8875    0.0000 C   0  0  0  0  0  0  0  0  0  0  0  0
    0.0000   -2.4750    0.0000 C   0  0  0  0  0  0  0  0  0  0  0  0
    0.0000   -1.6500    0.0000 N   0  0  0  0  0  0  0  0  0  0  0  0
    0.7145   -1.2375    0.0000 C   0  0  0  0  0  0  0  0  0  0  0  0
    0.7145   -0.4125    0.0000 N   0  0  0  0  0  0  0  0  0  0  0  0
    1.4289    0.0000    0.0000 C   0  0  0  0  0  0  0  0  0  0  0  0
    1.4289    0.8250    0.0000 N   0  0  0  0  0  0  0  0  0  0  0  0
    2.1434    1.2375    0.0000 C   0  0  0  0  0  0  0  0  0  0  0  0
    0.7145    1.2375    0.0000 C   0  0  0  0  0  0  0  0  0  0  0  0
    0.7145    2.0625    0.0000 C   0  0  0  0  0  0  0  0  0  0  0  0
    0.0000    2.4750    0.0000 C   0  0  0  0  0  0  0  0  0  0  0  0
    0.0000    3.3000    0.0000 C   0  0  0  0  0  0  0  0  0  0  0  0
    0.7145    3.7125    0.0000 C   0  0  0  0  0  0  0  0  0  0  0  0
    1.4289    3.3000    0.0000 C   0  0  0  0  0  0  0  0  0  0  0  0
    1.4289    2.4750    0.0000 C   0  0  0  0  0  0  0  0  0  0  0  0
    2.1434   -0.4125    0.0000 C   0  0  0  0  0  0  0  0  0  0  0  0
    2.8579    0.0000    0.0000 C   0  0  0  0  0  0  0  0  0  0  0  0
    3.5724   -0.4125    0.0000 C   0  0  0  0  0  0  0  0  0  0  0  0
    4.2868   -0.0000    0.0000 C   0  0  0  0  0  0  0  0  0  0  0  0
    3.5724   -1.2375    0.0000 C   0  0  0  0  0  0  0  0  0  0  0  0
    2.8579   -1.6500    0.0000 C   0  0  0  0  0  0  0  0  0  0  0  0
    2.1434   -1.2375    0.0000 C   0  0  0  0  0  0  0  0  0  0  0  0
    1.4289   -1.6500    0.0000 N   0  0  0  0  0  0  0  0  0  0  0  0
    0.0000   -4.1250    0.0000 C   0  0  0  0  0  0  0  0  0  0  0  0
    0.0000   -4.9500    0.0000 C   0  0  0  0  0  0  0  0  0  0  0  0
    0.7145   -5.3625    0.0000 O   0  0  0  0  0  0  0  0  0  0  0  0
    0.7145   -6.1875    0.0000 C   0  0  0  0  0  0  0  0  0  0  0  0
  1  2  1  0  0  0  0
  2  3  1  0  0  0  0
  3  4  2  0  0  0  0
  3 31  1  0  0  0  0
  4  5  1  0  0  0  0
  5  6  2  0  0  0  0
  6  7  1  0  0  0  0
  6 30  1  0  0  0  0
  7  8  1  0  0  0  0
  8  9  1  0  0  0  0
  9 10  1  0  0  0  0
 10 11  2  0  0  0  0
 10 29  1  0  0  0  0
 11 12  1  0  0  0  0
 12 13  1  0  0  0  0
 12 22  2  0  0  0  0
 13 14  1  0  0  0  0
 13 15  1  0  0  0  0
 15 16  1  0  0  0  0
 16 17  2  0  0  0  0
 16 21  1  0  0  0  0
 17 18  1  0  0  0  0
 18 19  2  0  0  0  0
 19 20  1  0  0  0  0
 20 21  2  0  0  0  0
 22 23  1  0  0  0  0
 22 28  1  0  0  0  0
 23 24  2  0  0  0  0
 24 25  1  0  0  0  0
 24 26  1  0  0  0  0
 26 27  2  0  0  0  0
 27 28  1  0  0  0  0
 28 29  2  0  0  0  0
 30 31  2  0  0  0  0
 31 32  1  0  0  0  0
 32 33  1  0  0  0  0
M  END
$$$$

 OpenBabel12191814062D

 40 44  0  0  0  0  0  0  0  0999 V2000
    2.1434   -7.8375    0.0000 C   0  0  0  0  0  0  0  0  0  0  0  0
    1.4289   -7.4250    0.0000 O   0  0  0  0  0  0  0  0  0  0  0  0
    1.4289   -6.6000    0.0000 C   0  0  0  0  0  0  0  0  0  0  0  0
    0.7145   -6.1875    0.0000 C   0  0  0  0  0  0  0  0  0  0  0  0
    0.7145   -5.3625    0.0000 C   0  0  0  0  0  0  0  0  0  0  0  0
    1.4289   -4.9500    0.0000 C   0  0  0  0  0  0  0  0  0  0  0  0
    1.4289   -4.1250    0.0000 C   0  0  0  0  0  0  0  0  0  0  0  0
    2.1434   -3.7125    0.0000 C   0  0  0  0  0  0  0  0  0  0  0  0
    2.1434   -2.8875    0.0000 N   0  0  0  0  0  0  0  0  0  0  0  0
    2.8579   -2.4750    0.0000 C   0  0  0  0  0  0  0  0  0  0  0  0
    2.8579   -1.6500    0.0000 N   0  0  0  0  0  0  0  0  0  0  0  0
    3.5724   -1.2375    0.0000 C   0  0  0  0  0  0  0  0  0  0  0  0
    3.5724   -0.4125    0.0000 N   0  0  0  0  0  0  0  0  0  0  0  0
    2.8579    0.0000    0.0000 C   0  0  0  0  0  0  0  0  0  0  0  0
    2.8579    0.8250    0.0000 C   0  0  0  0  0  0  0  0  0  0  0  0
    3.5724    1.2375    0.0000 C   0  0  0  0  0  0  0  0  0  0  0  0
    3.5724    2.0625    0.0000 C   0  0  0  0  0  0  0  0  0  0  0  0
    4.2868    2.4750    0.0000 C   0  0  0  0  0  0  0  0  0  0  0  0
    4.2868    3.3000    0.0000 O   0  0  0  0  0  0  0  0  0  0  0  0
    3.5724    3.7125    0.0000 C   0  0  0  0  0  0  0  0  0  0  0  0
    5.0013    2.0625    0.0000 C   0  0  0  0  0  0  0  0  0  0  0  0
    5.7158    2.4750    0.0000 O   0  0  0  0  0  0  0  0  0  0  0  0
    6.4302    2.0625    0.0000 C   0  0  0  0  0  0  0  0  0  0  0  0
    5.0013    1.2375    0.0000 C   0  0  0  0  0  0  0  0  0  0  0  0
    4.2868    0.8250    0.0000 C   0  0  0  0  0  0  0  0  0  0  0  0
    4.2868    0.0000    0.0000 C   0  0  0  0  0  0  0  0  0  0  0  0
    4.2868   -1.6500    0.0000 C   0  0  0  0  0  0  0  0  0  0  0  0
    5.0013   -1.2375    0.0000 C   0  0  0  0  0  0  0  0  0  0  0  0
    5.7158   -1.6500    0.0000 C   0  0  0  0  0  0  0  0  0  0  0  0
    5.7158   -2.4750    0.0000 C   0  0  0  0  0  0  0  0  0  0  0  0
    5.0013   -2.8875    0.0000 C   0  0  0  0  0  0  0  0  0  0  0  0
    4.2868   -2.4750    0.0000 C   0  0  0  0  0  0  0  0  0  0  0  0
    3.5724   -2.8875    0.0000 N   0  0  0  0  0  0  0  0  0  0  0  0
    6.4302   -1.2375    0.0000 N   0  0  0  0  0  0  0  0  0  0  0  0
    7.1447   -1.6500    0.0000 C   0  0  0  0  0  0  0  0  0  0  0  0
    6.4302   -0.4125    0.0000 C   0  0  0  0  0  0  0  0  0  0  0  0
    2.1434   -5.3625    0.0000 C   0  0  0  0  0  0  0  0  0  0  0  0
    2.1434   -6.1875    0.0000 C   0  0  0  0  0  0  0  0  0  0  0  0
    2.8579   -6.6000    0.0000 O   0  0  0  0  0  0  0  0  0  0  0  0
    2.8579   -7.4250    0.0000 C   0  0  0  0  0  0  0  0  0  0  0  0
  1  2  1  0  0  0  0
  2  3  1  0  0  0  0
  3  4  2  0  0  0  0
  3 38  1  0  0  0  0
  4  5  1  0  0  0  0
  5  6  2  0  0  0  0
  6  7  1  0  0  0  0
  6 37  1  0  0  0  0
  7  8  1  0  0  0  0
  8  9  1  0  0  0  0
  9 10  1  0  0  0  0
 10 11  2  0  0  0  0
 10 33  1  0  0  0  0
 11 12  1  0  0  0  0
 12 13  1  0  0  0  0
 12 27  2  0  0  0  0
 13 14  1  0  0  0  0
 13 26  1  0  0  0  0
 14 15  1  0  0  0  0
 15 16  1  0  0  0  0
 16 17  2  0  0  0  0
 16 25  1  0  0  0  0
 17 18  1  0  0  0  0
 18 19  1  0  0  0  0
 18 21  2  0  0  0  0
 19 20  1  0  0  0  0
 21 22  1  0  0  0  0
 21 24  1  0  0  0  0
 22 23  1  0  0  0  0
 24 25  2  0  0  0  0
 25 26  1  0  0  0  0
 27 28  1  0  0  0  0
 27 32  1  0  0  0  0
 28 29  2  0  0  0  0
 29 30  1  0  0  0  0
 29 34  1  0  0  0  0
 30 31  2  0  0  0  0
 31 32  1  0  0  0  0
 32 33  2  0  0  0  0
 34 35  1  0  0  0  0
 34 36  1  0  0  0  0
 37 38  2  0  0  0  0
 38 39  1  0  0  0  0
 39 40  1  0  0  0  0
M  END
$$$$

 OpenBabel12191814062D

 41 45  0  0  0  0  0  0  0  0999 V2000
    2.1434   -7.8375    0.0000 C   0  0  0  0  0  0  0  0  0  0  0  0
    1.4289   -7.4250    0.0000 O   0  0  0  0  0  0  0  0  0  0  0  0
    1.4289   -6.6000    0.0000 C   0  0  0  0  0  0  0  0  0  0  0  0
    0.7145   -6.1875    0.0000 C   0  0  0  0  0  0  0  0  0  0  0  0
    0.7145   -5.3625    0.0000 C   0  0  0  0  0  0  0  0  0  0  0  0
    1.4289   -4.9500    0.0000 C   0  0  0  0  0  0  0  0  0  0  0  0
    1.4289   -4.1250    0.0000 C   0  0  0  0  0  0  0  0  0  0  0  0
    2.1434   -3.7125    0.0000 C   0  0  0  0  0  0  0  0  0  0  0  0
    2.1434   -2.8875    0.0000 N   0  0  0  0  0  0  0  0  0  0  0  0
    2.8579   -2.4750    0.0000 C   0  0  0  0  0  0  0  0  0  0  0  0
    2.8579   -1.6500    0.0000 N   0  0  0  0  0  0  0  0  0  0  0  0
    3.5724   -1.2375    0.0000 C   0  0  0  0  0  0  0  0  0  0  0  0
    3.5724   -0.4125    0.0000 N   0  0  0  0  0  0  0  0  0  0  0  0
    2.8579    0.0000    0.0000 C   0  0  0  0  0  0  0  0  0  0  0  0
    2.8579    0.8250    0.0000 C   0  0  0  0  0  0  0  0  0  0  0  0
    3.5724    1.2375    0.0000 C   0  0  0  0  0  0  0  0  0  0  0  0
    3.5724    2.0625    0.0000 C   0  0  0  0  0  0  0  0  0  0  0  0
    4.2868    2.4750    0.0000 C   0  0  0  0  0  0  0  0  0  0  0  0
    4.2868    3.3000    0.0000 O   0  0  0  0  0  0  0  0  0  0  0  0
    3.5724    3.7125    0.0000 C   0  0  0  0  0  0  0  0  0  0  0  0
    5.0013    2.0625    0.0000 C   0  0  0  0  0  0  0  0  0  0  0  0
    5.7158    2.4750    0.0000 O   0  0  0  0  0  0  0  0  0  0  0  0
    6.4302    2.0625    0.0000 C   0  0  0  0  0  0  0  0  0  0  0  0
    5.0013    1.2375    0.0000 C   0  0  0  0  0  0  0  0  0  0  0  0
    4.2868    0.8250    0.0000 C   0  0  0  0  0  0  0  0  0  0  0  0
    4.2868    0.0000    0.0000 C   0  0  0  0  0  0  0  0  0  0  0  0
    4.2868   -1.6500    0.0000 C   0  0  0  0  0  0  0  0  0  0  0  0
    5.0013   -1.2375    0.0000 C   0  0  0  0  0  0  0  0  0  0  0  0
    5.7158   -1.6500    0.0000 C   0  0  0  0  0  0  0  0  0  0  0  0
    6.4302   -1.2375    0.0000 O   0  0  0  0  0  0  0  0  0  0  0  0
    7.1447   -1.6500    0.0000 C   0  0  0  0  0  0  0  0  0  0  0  0
    5.7158   -2.4750    0.0000 C   0  0  0  0  0  0  0  0  0  0  0  0
    6.4302   -2.8875    0.0000 O   0  0  0  0  0  0  0  0  0  0  0  0
    6.4302   -3.7125    0.0000 C   0  0  0  0  0  0  0  0  0  0  0  0
    5.0013   -2.8875    0.0000 C   0  0  0  0  0  0  0  0  0  0  0  0
    4.2868   -2.4750    0.0000 C   0  0  0  0  0  0  0  0  0  0  0  0
    3.5724   -2.8875    0.0000 N   0  0  0  0  0  0  0  0  0  0  0  0
    2.1434   -5.3625    0.0000 C   0  0  0  0  0  0  0  0  0  0  0  0
    2.1434   -6.1875    0.0000 C   0  0  0  0  0  0  0  0  0  0  0  0
    2.8579   -6.6000    0.0000 O   0  0  0  0  0  0  0  0  0  0  0  0
    2.8579   -7.4250    0.0000 C   0  0  0  0  0  0  0  0  0  0  0  0
  1  2  1  0  0  0  0
  2  3  1  0  0  0  0
  3  4  2  0  0  0  0
  3 39  1  0  0  0  0
  4  5  1  0  0  0  0
  5  6  2  0  0  0  0
  6  7  1  0  0  0  0
  6 38  1  0  0  0  0
  7  8  1  0  0  0  0
  8  9  1  0  0  0  0
  9 10  1  0  0  0  0
 10 11  2  0  0  0  0
 10 37  1  0  0  0  0
 11 12  1  0  0  0  0
 12 13  1  0  0  0  0
 12 27  2  0  0  0  0
 13 14  1  0  0  0  0
 13 26  1  0  0  0  0
 14 15  1  0  0  0  0
 15 16  1  0  0  0  0
 16 17  2  0  0  0  0
 16 25  1  0  0  0  0
 17 18  1  0  0  0  0
 18 19  1  0  0  0  0
 18 21  2  0  0  0  0
 19 20  1  0  0  0  0
 21 22  1  0  0  0  0
 21 24  1  0  0  0  0
 22 23  1  0  0  0  0
 24 25  2  0  0  0  0
 25 26  1  0  0  0  0
 27 28  1  0  0  0  0
 27 36  1  0  0  0  0
 28 29  2  0  0  0  0
 29 30  1  0  0  0  0
 29 32  1  0  0  0  0
 30 31  1  0  0  0  0
 32 33  1  0  0  0  0
 32 35  2  0  0  0  0
 33 34  1  0  0  0  0
 35 36  1  0  0  0  0
 36 37  2  0  0  0  0
 38 39  2  0  0  0  0
 39 40  1  0  0  0  0
 40 41  1  0  0  0  0
M  END
$$$$

 OpenBabel12191814062D

 25 26  0  0  0  0  0  0  0  0999 V2000
    0.0000   -7.4250    0.0000 C   0  0  0  0  0  0  0  0  0  0  0  0
    0.0000   -6.6000    0.0000 O   0  0  0  0  0  0  0  0  0  0  0  0
    0.7145   -6.1875    0.0000 C   0  0  0  0  0  0  0  0  0  0  0  0
    0.7145   -5.3625    0.0000 C   0  0  0  0  0  0  0  0  0  0  0  0
    1.4289   -4.9500    0.0000 C   0  0  0  0  0  0  0  0  0  0  0  0
    2.1434   -5.3625    0.0000 C   0  0  0  0  0  0  0  0  0  0  0  0
    2.8579   -4.9500    0.0000 C   0  0  0  0  0  0  0  0  0  0  0  0
    3.5724   -5.3625    0.0000 C   0  0  0  0  0  0  0  0  0  0  0  0
    4.2868   -4.9500    0.0000 N   0  0  0  0  0  0  0  0  0  0  0  0
    5.0013   -5.3625    0.0000 C   0  0  0  0  0  0  0  0  0  0  0  0
    5.7158   -4.9500    0.0000 C   0  0  3  0  0  0  0  0  0  0  0  0
    5.7158   -4.1250    0.0000 O   0  0  0  0  0  0  0  0  0  0  0  0
    6.4302   -5.3625    0.0000 C   0  0  0  0  0  0  0  0  0  0  0  0
    7.1447   -4.9500    0.0000 O   0  0  0  0  0  0  0  0  0  0  0  0
    7.8592   -5.3625    0.0000 C   0  0  0  0  0  0  0  0  0  0  0  0
    8.5737   -4.9500    0.0000 C   0  0  0  0  0  0  0  0  0  0  0  0
    9.2881   -5.3625    0.0000 C   0  0  0  0  0  0  0  0  0  0  0  0
    9.2881   -6.1875    0.0000 C   0  0  0  0  0  0  0  0  0  0  0  0
    8.5737   -6.6000    0.0000 C   0  0  0  0  0  0  0  0  0  0  0  0
    8.5737   -7.4250    0.0000 C   0  0  0  0  0  0  0  0  0  0  0  0
    7.8592   -6.1875    0.0000 C   0  0  0  0  0  0  0  0  0  0  0  0
    2.1434   -6.1875    0.0000 C   0  0  0  0  0  0  0  0  0  0  0  0
    1.4289   -6.6000    0.0000 C   0  0  0  0  0  0  0  0  0  0  0  0
    1.4289   -7.4250    0.0000 O   0  0  0  0  0  0  0  0  0  0  0  0
    0.7145   -7.8375    0.0000 C   0  0  0  0  0  0  0  0  0  0  0  0
  1  2  1  0  0  0  0
  2  3  1  0  0  0  0
  3  4  2  0  0  0  0
  3 23  1  0  0  0  0
  4  5  1  0  0  0  0
  5  6  2  0  0  0  0
  6  7  1  0  0  0  0
  6 22  1  0  0  0  0
  7  8  1  0  0  0  0
  8  9  1  0  0  0  0
  9 10  1  0  0  0  0
 10 11  1  0  0  0  0
 11 12  1  0  0  0  0
 11 13  1  0  0  0  0
 13 14  1  0  0  0  0
 14 15  1  0  0  0  0
 15 16  2  0  0  0  0
 15 21  1  0  0  0  0
 16 17  1  0  0  0  0
 17 18  2  0  0  0  0
 18 19  1  0  0  0  0
 19 20  1  0  0  0  0
 19 21  2  0  0  0  0
 22 23  2  0  0  0  0
 23 24  1  0  0  0  0
 24 25  1  0  0  0  0
M  END
$$$$

 OpenBabel12191814062D

 34 35  0  0  0  0  0  0  0  0999 V2000
   -2.1434   -3.7125    0.0000 C   0  0  0  0  0  0  0  0  0  0  0  0
   -1.4289   -3.3000    0.0000 O   0  0  0  0  0  0  0  0  0  0  0  0
   -0.7145   -3.7125    0.0000 C   0  0  0  0  0  0  0  0  0  0  0  0
    0.0000   -3.3000    0.0000 C   0  0  0  0  0  0  0  0  0  0  0  0
    0.7145   -3.7125    0.0000 C   0  0  0  0  0  0  0  0  0  0  0  0
    0.7145   -4.5375    0.0000 C   0  0  0  0  0  0  0  0  0  0  0  0
    1.4289   -4.9500    0.0000 C   0  0  0  0  0  0  0  0  0  0  0  0
    2.1434   -4.5375    0.0000 C   0  0  0  0  0  0  0  0  0  0  0  0
    2.8579   -4.9500    0.0000 N   0  0  0  0  0  0  0  0  0  0  0  0
    3.5724   -4.5375    0.0000 C   0  0  0  0  0  0  0  0  0  0  0  0
    4.2868   -4.9500    0.0000 C   0  0  0  0  0  0  0  0  0  0  0  0
    5.0013   -4.5375    0.0000 C   0  0  0  0  0  0  0  0  0  0  0  0
    5.7158   -4.9500    0.0000 C   0  0  3  0  0  0  0  0  0  0  0  0
    5.3033   -5.6645    0.0000 C   0  0  0  0  0  0  0  0  0  0  0  0
    4.8908   -6.3789    0.0000 N   0  0  0  0  0  0  0  0  0  0  0  0
    6.1283   -4.2355    0.0000 C   0  0  0  0  0  0  0  0  0  0  0  0
    6.9533   -4.2355    0.0000 C   0  0  0  0  0  0  0  0  0  0  0  0
    5.7158   -3.5211    0.0000 C   0  0  0  0  0  0  0  0  0  0  0  0
    6.4302   -5.3625    0.0000 C   0  0  0  0  0  0  0  0  0  0  0  0
    7.1447   -4.9500    0.0000 C   0  0  0  0  0  0  0  0  0  0  0  0
    7.8592   -5.3625    0.0000 C   0  0  0  0  0  0  0  0  0  0  0  0
    8.5737   -4.9500    0.0000 O   0  0  0  0  0  0  0  0  0  0  0  0
    9.2881   -5.3625    0.0000 C   0  0  0  0  0  0  0  0  0  0  0  0
    7.8592   -6.1875    0.0000 C   0  0  0  0  0  0  0  0  0  0  0  0
    8.5737   -6.6000    0.0000 O   0  0  0  0  0  0  0  0  0  0  0  0
    9.2881   -6.1875    0.0000 C   0  0  0  0  0  0  0  0  0  0  0  0
    7.1447   -6.6000    0.0000 C   0  0  0  0  0  0  0  0  0  0  0  0
    7.1447   -7.4250    0.0000 O   0  0  0  0  0  0  0  0  0  0  0  0
    6.4302   -7.8375    0.0000 C   0  0  0  0  0  0  0  0  0  0  0  0
    6.4302   -6.1875    0.0000 C   0  0  0  0  0  0  0  0  0  0  0  0
    0.0000   -4.9500    0.0000 C   0  0  0  0  0  0  0  0  0  0  0  0
   -0.7145   -4.5375    0.0000 C   0  0  0  0  0  0  0  0  0  0  0  0
   -1.4289   -4.9500    0.0000 O   0  0  0  0  0  0  0  0  0  0  0  0
   -2.1434   -4.5375    0.0000 C   0  0  0  0  0  0  0  0  0  0  0  0
  1  2  1  0  0  0  0
  2  3  1  0  0  0  0
  3  4  2  0  0  0  0
  3 32  1  0  0  0  0
  4  5  1  0  0  0  0
  5  6  2  0  0  0  0
  6  7  1  0  0  0  0
  6 31  1  0  0  0  0
  7  8  1  0  0  0  0
  8  9  1  0  0  0  0
  9 10  1  0  0  0  0
 10 11  1  0  0  0  0
 11 12  1  0  0  0  0
 12 13  1  0  0  0  0
 13 14  1  0  0  0  0
 13 16  1  0  0  0  0
 13 19  1  0  0  0  0
 14 15  3  0  0  0  0
 16 17  1  0  0  0  0
 16 18  1  0  0  0  0
 19 20  2  0  0  0  0
 19 30  1  0  0  0  0
 20 21  1  0  0  0  0
 21 22  1  0  0  0  0
 21 24  2  0  0  0  0
 22 23  1  0  0  0  0
 24 25  1  0  0  0  0
 24 27  1  0  0  0  0
 25 26  1  0  0  0  0
 27 28  1  0  0  0  0
 27 30  2  0  0  0  0
 28 29  1  0  0  0  0
 31 32  2  0  0  0  0
 32 33  1  0  0  0  0
 33 34  1  0  0  0  0
M  END
$$$$

 OpenBabel12191814062D

 32 33  0  0  0  0  0  0  0  0999 V2000
   -2.1434   -3.7125    0.0000 C   0  0  0  0  0  0  0  0  0  0  0  0
   -1.4289   -3.3000    0.0000 O   0  0  0  0  0  0  0  0  0  0  0  0
   -0.7145   -3.7125    0.0000 C   0  0  0  0  0  0  0  0  0  0  0  0
    0.0000   -3.3000    0.0000 C   0  0  0  0  0  0  0  0  0  0  0  0
    0.7145   -3.7125    0.0000 C   0  0  0  0  0  0  0  0  0  0  0  0
    0.7145   -4.5375    0.0000 C   0  0  0  0  0  0  0  0  0  0  0  0
    1.4289   -4.9500    0.0000 C   0  0  0  0  0  0  0  0  0  0  0  0
    2.1434   -4.5375    0.0000 C   0  0  0  0  0  0  0  0  0  0  0  0
    2.8579   -4.9500    0.0000 N   0  0  0  0  0  0  0  0  0  0  0  0
    3.5724   -4.5375    0.0000 C   0  0  0  0  0  0  0  0  0  0  0  0
    4.2868   -4.9500    0.0000 C   0  0  0  0  0  0  0  0  0  0  0  0
    5.0013   -4.5375    0.0000 C   0  0  0  0  0  0  0  0  0  0  0  0
    5.7158   -4.9500    0.0000 C   0  0  3  0  0  0  0  0  0  0  0  0
    5.3033   -5.6645    0.0000 C   0  0  0  0  0  0  0  0  0  0  0  0
    4.8908   -6.3789    0.0000 N   0  0  0  0  0  0  0  0  0  0  0  0
    6.1283   -4.2355    0.0000 C   0  0  0  0  0  0  0  0  0  0  0  0
    6.9533   -4.2355    0.0000 C   0  0  0  0  0  0  0  0  0  0  0  0
    5.7158   -3.5211    0.0000 C   0  0  0  0  0  0  0  0  0  0  0  0
    6.4302   -5.3625    0.0000 C   0  0  0  0  0  0  0  0  0  0  0  0
    7.1447   -4.9500    0.0000 C   0  0  0  0  0  0  0  0  0  0  0  0
    7.8592   -5.3625    0.0000 C   0  0  0  0  0  0  0  0  0  0  0  0
    7.8592   -6.1875    0.0000 C   0  0  0  0  0  0  0  0  0  0  0  0
    8.5737   -6.6000    0.0000 O   0  0  0  0  0  0  0  0  0  0  0  0
    9.2881   -6.1875    0.0000 C   0  0  0  0  0  0  0  0  0  0  0  0
    7.1447   -6.6000    0.0000 C   0  0  0  0  0  0  0  0  0  0  0  0
    7.1447   -7.4250    0.0000 O   0  0  0  0  0  0  0  0  0  0  0  0
    6.4302   -7.8375    0.0000 C   0  0  0  0  0  0  0  0  0  0  0  0
    6.4302   -6.1875    0.0000 C   0  0  0  0  0  0  0  0  0  0  0  0
    0.0000   -4.9500    0.0000 C   0  0  0  0  0  0  0  0  0  0  0  0
   -0.7145   -4.5375    0.0000 C   0  0  0  0  0  0  0  0  0  0  0  0
   -1.4289   -4.9500    0.0000 O   0  0  0  0  0  0  0  0  0  0  0  0
   -2.1434   -4.5375    0.0000 C   0  0  0  0  0  0  0  0  0  0  0  0
  1  2  1  0  0  0  0
  2  3  1  0  0  0  0
  3  4  2  0  0  0  0
  3 30  1  0  0  0  0
  4  5  1  0  0  0  0
  5  6  2  0  0  0  0
  6  7  1  0  0  0  0
  6 29  1  0  0  0  0
  7  8  1  0  0  0  0
  8  9  1  0  0  0  0
  9 10  1  0  0  0  0
 10 11  1  0  0  0  0
 11 12  1  0  0  0  0
 12 13  1  0  0  0  0
 13 14  1  0  0  0  0
 13 16  1  0  0  0  0
 13 19  1  0  0  0  0
 14 15  3  0  0  0  0
 16 17  1  0  0  0  0
 16 18  1  0  0  0  0
 19 20  2  0  0  0  0
 19 28  1  0  0  0  0
 20 21  1  0  0  0  0
 21 22  2  0  0  0  0
 22 23  1  0  0  0  0
 22 25  1  0  0  0  0
 23 24  1  0  0  0  0
 25 26  1  0  0  0  0
 25 28  2  0  0  0  0
 26 27  1  0  0  0  0
 29 30  2  0  0  0  0
 30 31  1  0  0  0  0
 31 32  1  0  0  0  0
M  END
$$$$

 OpenBabel12191814062D

 40 44  0  0  0  0  0  0  0  0999 V2000
   -7.1447   -4.9500    0.0000 C   0  0  0  0  0  0  0  0  0  0  0  0
   -7.1447   -4.1250    0.0000 O   0  0  0  0  0  0  0  0  0  0  0  0
   -6.4302   -3.7125    0.0000 C   0  0  0  0  0  0  0  0  0  0  0  0
   -6.4302   -2.8875    0.0000 C   0  0  0  0  0  0  0  0  0  0  0  0
   -5.7158   -2.4750    0.0000 C   0  0  0  0  0  0  0  0  0  0  0  0
   -5.0013   -2.8875    0.0000 C   0  0  0  0  0  0  0  0  0  0  0  0
   -4.2868   -2.4750    0.0000 C   0  0  0  0  0  0  0  0  0  0  0  0
   -3.5724   -2.8875    0.0000 N   0  0  0  0  0  0  0  0  0  0  0  0
   -3.5724   -3.7125    0.0000 C   0  0  0  0  0  0  0  0  0  0  0  0
   -2.8579   -2.4750    0.0000 C   0  0  0  0  0  0  0  0  0  0  0  0
   -2.1434   -2.8875    0.0000 C   0  0  0  0  0  0  0  0  0  0  0  0
   -1.4289   -2.4750    0.0000 C   0  0  0  0  0  0  0  0  0  0  0  0
   -0.7145   -2.8875    0.0000 C   0  0  0  0  0  0  0  0  0  0  0  0
    0.0000   -2.4750    0.0000 C   0  0  0  0  0  0  0  0  0  0  0  0
    0.7145   -2.8875    0.0000 C   0  0  0  0  0  0  0  0  0  0  0  0
    0.7145   -3.7125    0.0000 C   0  0  0  0  0  0  0  0  0  0  0  0
    1.4289   -4.1250    0.0000 N   0  0  0  0  0  0  0  0  0  0  0  0
    2.1434   -3.7125    0.0000 C   0  0  0  0  0  0  0  0  0  0  0  0
    2.8579   -4.1250    0.0000 O   0  0  0  0  0  0  0  0  0  0  0  0
    2.1434   -2.8875    0.0000 C   0  0  0  0  0  0  0  0  0  0  0  0
    1.4289   -2.4750    0.0000 C   0  0  0  0  0  0  0  0  0  0  0  0
    1.4289   -1.6500    0.0000 C   0  0  0  0  0  0  0  0  0  0  0  0
    2.1434   -1.2375    0.0000 C   0  0  0  0  0  0  0  0  0  0  0  0
    2.8579   -1.6500    0.0000 C   0  0  0  0  0  0  0  0  0  0  0  0
    3.5724   -1.2375    0.0000 C   0  0  0  0  0  0  0  0  0  0  0  0
    3.5724   -0.4125    0.0000 O   0  0  0  0  0  0  0  0  0  0  0  0
    4.2868   -1.6500    0.0000 C   0  0  0  0  0  0  0  0  0  0  0  0
    5.0013   -1.2375    0.0000 C   0  0  0  0  0  0  0  0  0  0  0  0
    5.7158   -1.6500    0.0000 C   0  0  0  0  0  0  0  0  0  0  0  0
    5.7158   -2.4750    0.0000 C   0  0  0  0  0  0  0  0  0  0  0  0
    5.0013   -2.8875    0.0000 C   0  0  0  0  0  0  0  0  0  0  0  0
    4.2868   -2.4750    0.0000 C   0  0  0  0  0  0  0  0  0  0  0  0
    3.5724   -2.8875    0.0000 N   0  0  0  0  0  0  0  0  0  0  0  0
    2.8579   -2.4750    0.0000 C   0  0  0  0  0  0  0  0  0  0  0  0
    0.0000   -4.1250    0.0000 C   0  0  0  0  0  0  0  0  0  0  0  0
   -0.7145   -3.7125    0.0000 C   0  0  0  0  0  0  0  0  0  0  0  0
   -5.0013   -3.7125    0.0000 C   0  0  0  0  0  0  0  0  0  0  0  0
   -5.7158   -4.1250    0.0000 C   0  0  0  0  0  0  0  0  0  0  0  0
   -5.7158   -4.9500    0.0000 O   0  0  0  0  0  0  0  0  0  0  0  0
   -6.4302   -5.3625    0.0000 C   0  0  0  0  0  0  0  0  0  0  0  0
  1  2  1  0  0  0  0
  2  3  1  0  0  0  0
  3  4  2  0  0  0  0
  3 38  1  0  0  0  0
  4  5  1  0  0  0  0
  5  6  2  0  0  0  0
  6  7  1  0  0  0  0
  6 37  1  0  0  0  0
  7  8  1  0  0  0  0
  8  9  1  0  0  0  0
  8 10  1  0  0  0  0
 10 11  1  0  0  0  0
 11 12  2  0  0  0  0
 12 13  1  0  0  0  0
 13 14  2  0  0  0  0
 13 36  1  0  0  0  0
 14 15  1  0  0  0  0
 15 16  2  0  0  0  0
 16 17  1  0  0  0  0
 16 35  1  0  0  0  0
 17 18  1  0  0  0  0
 18 19  2  0  0  0  0
 18 20  1  0  0  0  0
 20 21  2  0  0  0  0
 20 34  1  0  0  0  0
 21 22  1  0  0  0  0
 22 23  2  0  0  0  0
 23 24  1  0  0  0  0
 24 25  1  0  0  0  0
 24 34  2  0  0  0  0
 25 26  2  0  0  0  0
 25 27  1  0  0  0  0
 27 28  2  0  0  0  0
 27 32  1  0  0  0  0
 28 29  1  0  0  0  0
 29 30  2  0  0  0  0
 30 31  1  0  0  0  0
 31 32  2  0  0  0  0
 32 33  1  0  0  0  0
 33 34  1  0  0  0  0
 35 36  2  0  0  0  0
 37 38  2  0  0  0  0
 38 39  1  0  0  0  0
 39 40  1  0  0  0  0
M  END
$$$$

 OpenBabel12191814062D

 41 45  0  0  0  0  0  0  0  0999 V2000
   -8.5737   -1.6500    0.0000 C   0  0  0  0  0  0  0  0  0  0  0  0
   -7.8592   -1.2375    0.0000 O   0  0  0  0  0  0  0  0  0  0  0  0
   -7.1447   -1.6500    0.0000 C   0  0  0  0  0  0  0  0  0  0  0  0
   -6.4302   -1.2375    0.0000 C   0  0  0  0  0  0  0  0  0  0  0  0
   -5.7158   -1.6500    0.0000 C   0  0  0  0  0  0  0  0  0  0  0  0
   -5.7158   -2.4750    0.0000 C   0  0  0  0  0  0  0  0  0  0  0  0
   -5.0013   -2.8875    0.0000 C   0  0  0  0  0  0  0  0  0  0  0  0
   -4.2868   -2.4750    0.0000 N   0  0  0  0  0  0  0  0  0  0  0  0
   -4.2868   -1.6500    0.0000 C   0  0  0  0  0  0  0  0  0  0  0  0
   -3.5724   -2.8875    0.0000 C   0  0  0  0  0  0  0  0  0  0  0  0
   -2.8579   -2.4750    0.0000 C   0  0  0  0  0  0  0  0  0  0  0  0
   -2.1434   -2.8875    0.0000 C   0  0  0  0  0  0  0  0  0  0  0  0
   -1.4289   -2.4750    0.0000 C   0  0  0  0  0  0  0  0  0  0  0  0
   -0.7145   -2.8875    0.0000 C   0  0  0  0  0  0  0  0  0  0  0  0
    0.0000   -2.4750    0.0000 C   0  0  0  0  0  0  0  0  0  0  0  0
    0.7145   -2.8875    0.0000 C   0  0  0  0  0  0  0  0  0  0  0  0
    0.7145   -3.7125    0.0000 C   0  0  0  0  0  0  0  0  0  0  0  0
    1.4289   -4.1250    0.0000 N   0  0  0  0  0  0  0  0  0  0  0  0
    2.1434   -3.7125    0.0000 C   0  0  0  0  0  0  0  0  0  0  0  0
    2.8579   -4.1250    0.0000 O   0  0  0  0  0  0  0  0  0  0  0  0
    2.1434   -2.8875    0.0000 C   0  0  0  0  0  0  0  0  0  0  0  0
    1.4289   -2.4750    0.0000 C   0  0  0  0  0  0  0  0  0  0  0  0
    1.4289   -1.6500    0.0000 C   0  0  0  0  0  0  0  0  0  0  0  0
    2.1434   -1.2375    0.0000 C   0  0  0  0  0  0  0  0  0  0  0  0
    2.8579   -1.6500    0.0000 C   0  0  0  0  0  0  0  0  0  0  0  0
    3.5724   -1.2375    0.0000 C   0  0  0  0  0  0  0  0  0  0  0  0
    3.5724   -0.4125    0.0000 O   0  0  0  0  0  0  0  0  0  0  0  0
    4.2868   -1.6500    0.0000 C   0  0  0  0  0  0  0  0  0  0  0  0
    5.0013   -1.2375    0.0000 C   0  0  0  0  0  0  0  0  0  0  0  0
    5.7158   -1.6500    0.0000 C   0  0  0  0  0  0  0  0  0  0  0  0
    5.7158   -2.4750    0.0000 C   0  0  0  0  0  0  0  0  0  0  0  0
    5.0013   -2.8875    0.0000 C   0  0  0  0  0  0  0  0  0  0  0  0
    4.2868   -2.4750    0.0000 C   0  0  0  0  0  0  0  0  0  0  0  0
    3.5724   -2.8875    0.0000 N   0  0  0  0  0  0  0  0  0  0  0  0
    2.8579   -2.4750    0.0000 C   0  0  0  0  0  0  0  0  0  0  0  0
    0.0000   -4.1250    0.0000 C   0  0  0  0  0  0  0  0  0  0  0  0
   -0.7145   -3.7125    0.0000 C   0  0  0  0  0  0  0  0  0  0  0  0
   -6.4302   -2.8875    0.0000 C   0  0  0  0  0  0  0  0  0  0  0  0
   -7.1447   -2.4750    0.0000 C   0  0  0  0  0  0  0  0  0  0  0  0
   -7.8592   -2.8875    0.0000 O   0  0  0  0  0  0  0  0  0  0  0  0
   -8.5737   -2.4750    0.0000 C   0  0  0  0  0  0  0  0  0  0  0  0
  1  2  1  0  0  0  0
  2  3  1  0  0  0  0
  3  4  2  0  0  0  0
  3 39  1  0  0  0  0
  4  5  1  0  0  0  0
  5  6  2  0  0  0  0
  6  7  1  0  0  0  0
  6 38  1  0  0  0  0
  7  8  1  0  0  0  0
  8  9  1  0  0  0  0
  8 10  1  0  0  0  0
 10 11  1  0  0  0  0
 11 12  2  0  0  0  0
 12 13  1  0  0  0  0
 13 14  1  0  0  0  0
 14 15  2  0  0  0  0
 14 37  1  0  0  0  0
 15 16  1  0  0  0  0
 16 17  2  0  0  0  0
 17 18  1  0  0  0  0
 17 36  1  0  0  0  0
 18 19  1  0  0  0  0
 19 20  2  0  0  0  0
 19 21  1  0  0  0  0
 21 22  2  0  0  0  0
 21 35  1  0  0  0  0
 22 23  1  0  0  0  0
 23 24  2  0  0  0  0
 24 25  1  0  0  0  0
 25 26  1  0  0  0  0
 25 35  2  0  0  0  0
 26 27  2  0  0  0  0
 26 28  1  0  0  0  0
 28 29  2  0  0  0  0
 28 33  1  0  0  0  0
 29 30  1  0  0  0  0
 30 31  2  0  0  0  0
 31 32  1  0  0  0  0
 32 33  2  0  0  0  0
 33 34  1  0  0  0  0
 34 35  1  0  0  0  0
 36 37  2  0  0  0  0
 38 39  2  0  0  0  0
 39 40  1  0  0  0  0
 40 41  1  0  0  0  0
M  END
$$$$

 OpenBabel12191814062D

 38 42  0  0  0  0  0  0  0  0999 V2000
   -5.7158   -4.9500    0.0000 C   0  0  0  0  0  0  0  0  0  0  0  0
   -5.7158   -4.1250    0.0000 O   0  0  0  0  0  0  0  0  0  0  0  0
   -5.0013   -3.7125    0.0000 C   0  0  0  0  0  0  0  0  0  0  0  0
   -5.0013   -2.8875    0.0000 C   0  0  0  0  0  0  0  0  0  0  0  0
   -4.2868   -2.4750    0.0000 C   0  0  0  0  0  0  0  0  0  0  0  0
   -3.5724   -2.8875    0.0000 C   0  0  0  0  0  0  0  0  0  0  0  0
   -2.8579   -2.4750    0.0000 C   0  0  0  0  0  0  0  0  0  0  0  0
   -2.1434   -2.8875    0.0000 N   0  0  0  0  0  0  0  0  0  0  0  0
   -2.1434   -3.7125    0.0000 C   0  0  0  0  0  0  0  0  0  0  0  0
   -1.4289   -2.4750    0.0000 C   0  0  0  0  0  0  0  0  0  0  0  0
   -0.7145   -2.8875    0.0000 C   0  0  0  0  0  0  0  0  0  0  0  0
    0.0000   -2.4750    0.0000 C   0  0  0  0  0  0  0  0  0  0  0  0
    0.7145   -2.8875    0.0000 C   0  0  0  0  0  0  0  0  0  0  0  0
    0.7145   -3.7125    0.0000 C   0  0  0  0  0  0  0  0  0  0  0  0
    1.4289   -4.1250    0.0000 N   0  0  0  0  0  0  0  0  0  0  0  0
    2.1434   -3.7125    0.0000 C   0  0  0  0  0  0  0  0  0  0  0  0
    2.8579   -4.1250    0.0000 O   0  0  0  0  0  0  0  0  0  0  0  0
    2.1434   -2.8875    0.0000 C   0  0  0  0  0  0  0  0  0  0  0  0
    1.4289   -2.4750    0.0000 C   0  0  0  0  0  0  0  0  0  0  0  0
    1.4289   -1.6500    0.0000 C   0  0  0  0  0  0  0  0  0  0  0  0
    2.1434   -1.2375    0.0000 C   0  0  0  0  0  0  0  0  0  0  0  0
    2.8579   -1.6500    0.0000 C   0  0  0  0  0  0  0  0  0  0  0  0
    3.5724   -1.2375    0.0000 C   0  0  0  0  0  0  0  0  0  0  0  0
    3.5724   -0.4125    0.0000 O   0  0  0  0  0  0  0  0  0  0  0  0
    4.2868   -1.6500    0.0000 C   0  0  0  0  0  0  0  0  0  0  0  0
    5.0013   -1.2375    0.0000 C   0  0  0  0  0  0  0  0  0  0  0  0
    5.7158   -1.6500    0.0000 C   0  0  0  0  0  0  0  0  0  0  0  0
    5.7158   -2.4750    0.0000 C   0  0  0  0  0  0  0  0  0  0  0  0
    5.0013   -2.8875    0.0000 C   0  0  0  0  0  0  0  0  0  0  0  0
    4.2868   -2.4750    0.0000 C   0  0  0  0  0  0  0  0  0  0  0  0
    3.5724   -2.8875    0.0000 N   0  0  0  0  0  0  0  0  0  0  0  0
    2.8579   -2.4750    0.0000 C   0  0  0  0  0  0  0  0  0  0  0  0
    0.0000   -4.1250    0.0000 C   0  0  0  0  0  0  0  0  0  0  0  0
   -0.7145   -3.7125    0.0000 C   0  0  0  0  0  0  0  0  0  0  0  0
   -3.5724   -3.7125    0.0000 C   0  0  0  0  0  0  0  0  0  0  0  0
   -4.2868   -4.1250    0.0000 C   0  0  0  0  0  0  0  0  0  0  0  0
   -4.2868   -4.9500    0.0000 O   0  0  0  0  0  0  0  0  0  0  0  0
   -5.0013   -5.3625    0.0000 C   0  0  0  0  0  0  0  0  0  0  0  0
  1  2  1  0  0  0  0
  2  3  1  0  0  0  0
  3  4  2  0  0  0  0
  3 36  1  0  0  0  0
  4  5  1  0  0  0  0
  5  6  2  0  0  0  0
  6  7  1  0  0  0  0
  6 35  1  0  0  0  0
  7  8  1  0  0  0  0
  8  9  1  0  0  0  0
  8 10  1  0  0  0  0
 10 11  1  0  0  0  0
 11 12  2  0  0  0  0
 11 34  1  0  0  0  0
 12 13  1  0  0  0  0
 13 14  2  0  0  0  0
 14 15  1  0  0  0  0
 14 33  1  0  0  0  0
 15 16  1  0  0  0  0
 16 17  2  0  0  0  0
 16 18  1  0  0  0  0
 18 19  2  0  0  0  0
 18 32  1  0  0  0  0
 19 20  1  0  0  0  0
 20 21  2  0  0  0  0
 21 22  1  0  0  0  0
 22 23  1  0  0  0  0
 22 32  2  0  0  0  0
 23 24  2  0  0  0  0
 23 25  1  0  0  0  0
 25 26  2  0  0  0  0
 25 30  1  0  0  0  0
 26 27  1  0  0  0  0
 27 28  2  0  0  0  0
 28 29  1  0  0  0  0
 29 30  2  0  0  0  0
 30 31  1  0  0  0  0
 31 32  1  0  0  0  0
 33 34  2  0  0  0  0
 35 36  2  0  0  0  0
 36 37  1  0  0  0  0
 37 38  1  0  0  0  0
M  END
$$$$

 OpenBabel12191814062D

 41 45  0  0  0  0  0  0  0  0999 V2000
   -7.1447   -1.6500    0.0000 C   0  0  0  0  0  0  0  0  0  0  0  0
   -6.4302   -1.2375    0.0000 O   0  0  0  0  0  0  0  0  0  0  0  0
   -5.7158   -1.6500    0.0000 C   0  0  0  0  0  0  0  0  0  0  0  0
   -5.0013   -1.2375    0.0000 C   0  0  0  0  0  0  0  0  0  0  0  0
   -4.2868   -1.6500    0.0000 C   0  0  0  0  0  0  0  0  0  0  0  0
   -4.2868   -2.4750    0.0000 C   0  0  0  0  0  0  0  0  0  0  0  0
   -3.5724   -2.8875    0.0000 C   0  0  0  0  0  0  0  0  0  0  0  0
   -2.8579   -2.4750    0.0000 N   0  0  0  0  0  0  0  0  0  0  0  0
   -2.8579   -1.6500    0.0000 C   0  0  0  0  0  0  0  0  0  0  0  0
   -2.1434   -2.8875    0.0000 C   0  0  0  0  0  0  0  0  0  0  0  0
   -1.4289   -2.4750    0.0000 C   0  0  0  0  0  0  0  0  0  0  0  0
   -0.7145   -2.8875    0.0000 C   0  0  0  0  0  0  0  0  0  0  0  0
    0.0000   -2.4750    0.0000 C   0  0  0  0  0  0  0  0  0  0  0  0
    0.7145   -2.8875    0.0000 C   0  0  0  0  0  0  0  0  0  0  0  0
    0.7145   -3.7125    0.0000 C   0  0  0  0  0  0  0  0  0  0  0  0
    1.4289   -4.1250    0.0000 N   0  0  0  0  0  0  0  0  0  0  0  0
    2.1434   -3.7125    0.0000 C   0  0  0  0  0  0  0  0  0  0  0  0
    2.8579   -4.1250    0.0000 O   0  0  0  0  0  0  0  0  0  0  0  0
    2.1434   -2.8875    0.0000 C   0  0  0  0  0  0  0  0  0  0  0  0
    1.4289   -2.4750    0.0000 C   0  0  0  0  0  0  0  0  0  0  0  0
    1.4289   -1.6500    0.0000 C   0  0  0  0  0  0  0  0  0  0  0  0
    2.1434   -1.2375    0.0000 C   0  0  0  0  0  0  0  0  0  0  0  0
    2.8579   -1.6500    0.0000 C   0  0  0  0  0  0  0  0  0  0  0  0
    3.5724   -1.2375    0.0000 C   0  0  0  0  0  0  0  0  0  0  0  0
    3.5724   -0.4125    0.0000 O   0  0  0  0  0  0  0  0  0  0  0  0
    4.2868   -1.6500    0.0000 C   0  0  0  0  0  0  0  0  0  0  0  0
    5.0013   -1.2375    0.0000 C   0  0  0  0  0  0  0  0  0  0  0  0
    5.0013   -0.4125    0.0000 C   0  0  0  0  0  0  0  0  0  0  0  0
    5.7158   -1.6500    0.0000 C   0  0  0  0  0  0  0  0  0  0  0  0
    5.7158   -2.4750    0.0000 C   0  0  0  0  0  0  0  0  0  0  0  0
    5.0013   -2.8875    0.0000 C   0  0  0  0  0  0  0  0  0  0  0  0
    4.2868   -2.4750    0.0000 C   0  0  0  0  0  0  0  0  0  0  0  0
    3.5724   -2.8875    0.0000 N   0  0  0  0  0  0  0  0  0  0  0  0
    2.8579   -2.4750    0.0000 C   0  0  0  0  0  0  0  0  0  0  0  0
    0.0000   -4.1250    0.0000 C   0  0  0  0  0  0  0  0  0  0  0  0
    0.0000   -4.9500    0.0000 C   0  0  0  0  0  0  0  0  0  0  0  0
   -0.7145   -3.7125    0.0000 C   0  0  0  0  0  0  0  0  0  0  0  0
   -5.0013   -2.8875    0.0000 C   0  0  0  0  0  0  0  0  0  0  0  0
   -5.7158   -2.4750    0.0000 C   0  0  0  0  0  0  0  0  0  0  0  0
   -6.4302   -2.8875    0.0000 O   0  0  0  0  0  0  0  0  0  0  0  0
   -7.1447   -2.4750    0.0000 C   0  0  0  0  0  0  0  0  0  0  0  0
  1  2  1  0  0  0  0
  2  3  1  0  0  0  0
  3  4  2  0  0  0  0
  3 39  1  0  0  0  0
  4  5  1  0  0  0  0
  5  6  2  0  0  0  0
  6  7  1  0  0  0  0
  6 38  1  0  0  0  0
  7  8  1  0  0  0  0
  8  9  1  0  0  0  0
  8 10  1  0  0  0  0
 10 11  1  0  0  0  0
 11 12  1  0  0  0  0
 12 13  2  0  0  0  0
 12 37  1  0  0  0  0
 13 14  1  0  0  0  0
 14 15  2  0  0  0  0
 15 16  1  0  0  0  0
 15 35  1  0  0  0  0
 16 17  1  0  0  0  0
 17 18  2  0  0  0  0
 17 19  1  0  0  0  0
 19 20  2  0  0  0  0
 19 34  1  0  0  0  0
 20 21  1  0  0  0  0
 21 22  2  0  0  0  0
 22 23  1  0  0  0  0
 23 24  1  0  0  0  0
 23 34  2  0  0  0  0
 24 25  2  0  0  0  0
 24 26  1  0  0  0  0
 26 27  2  0  0  0  0
 26 32  1  0  0  0  0
 27 28  1  0  0  0  0
 27 29  1  0  0  0  0
 29 30  2  0  0  0  0
 30 31  1  0  0  0  0
 31 32  2  0  0  0  0
 32 33  1  0  0  0  0
 33 34  1  0  0  0  0
 35 36  1  0  0  0  0
 35 37  2  0  0  0  0
 38 39  2  0  0  0  0
 39 40  1  0  0  0  0
 40 41  1  0  0  0  0
M  END
$$$$

 OpenBabel12191814062D

 41 45  0  0  0  0  0  0  0  0999 V2000
   -7.1447   -1.6500    0.0000 C   0  0  0  0  0  0  0  0  0  0  0  0
   -6.4302   -1.2375    0.0000 O   0  0  0  0  0  0  0  0  0  0  0  0
   -5.7158   -1.6500    0.0000 C   0  0  0  0  0  0  0  0  0  0  0  0
   -5.0013   -1.2375    0.0000 C   0  0  0  0  0  0  0  0  0  0  0  0
   -4.2868   -1.6500    0.0000 C   0  0  0  0  0  0  0  0  0  0  0  0
   -4.2868   -2.4750    0.0000 C   0  0  0  0  0  0  0  0  0  0  0  0
   -3.5724   -2.8875    0.0000 C   0  0  0  0  0  0  0  0  0  0  0  0
   -2.8579   -2.4750    0.0000 N   0  0  0  0  0  0  0  0  0  0  0  0
   -2.8579   -1.6500    0.0000 C   0  0  0  0  0  0  0  0  0  0  0  0
   -2.1434   -2.8875    0.0000 C   0  0  0  0  0  0  0  0  0  0  0  0
   -1.4289   -2.4750    0.0000 C   0  0  0  0  0  0  0  0  0  0  0  0
   -0.7145   -2.8875    0.0000 C   0  0  0  0  0  0  0  0  0  0  0  0
    0.0000   -2.4750    0.0000 C   0  0  0  0  0  0  0  0  0  0  0  0
    0.7145   -2.8875    0.0000 C   0  0  0  0  0  0  0  0  0  0  0  0
    0.7145   -3.7125    0.0000 C   0  0  0  0  0  0  0  0  0  0  0  0
    1.4289   -4.1250    0.0000 N   0  0  0  0  0  0  0  0  0  0  0  0
    2.1434   -3.7125    0.0000 C   0  0  0  0  0  0  0  0  0  0  0  0
    2.8579   -4.1250    0.0000 O   0  0  0  0  0  0  0  0  0  0  0  0
    2.1434   -2.8875    0.0000 C   0  0  0  0  0  0  0  0  0  0  0  0
    1.4289   -2.4750    0.0000 C   0  0  0  0  0  0  0  0  0  0  0  0
    1.4289   -1.6500    0.0000 C   0  0  0  0  0  0  0  0  0  0  0  0
    2.1434   -1.2375    0.0000 C   0  0  0  0  0  0  0  0  0  0  0  0
    2.8579   -1.6500    0.0000 C   0  0  0  0  0  0  0  0  0  0  0  0
    3.5724   -1.2375    0.0000 C   0  0  0  0  0  0  0  0  0  0  0  0
    3.5724   -0.4125    0.0000 O   0  0  0  0  0  0  0  0  0  0  0  0
    4.2868   -1.6500    0.0000 C   0  0  0  0  0  0  0  0  0  0  0  0
    5.0013   -1.2375    0.0000 C   0  0  0  0  0  0  0  0  0  0  0  0
    5.0013   -0.4125    0.0000 F   0  0  0  0  0  0  0  0  0  0  0  0
    5.7158   -1.6500    0.0000 C   0  0  0  0  0  0  0  0  0  0  0  0
    5.7158   -2.4750    0.0000 C   0  0  0  0  0  0  0  0  0  0  0  0
    5.0013   -2.8875    0.0000 C   0  0  0  0  0  0  0  0  0  0  0  0
    4.2868   -2.4750    0.0000 C   0  0  0  0  0  0  0  0  0  0  0  0
    3.5724   -2.8875    0.0000 N   0  0  0  0  0  0  0  0  0  0  0  0
    2.8579   -2.4750    0.0000 C   0  0  0  0  0  0  0  0  0  0  0  0
    0.0000   -4.1250    0.0000 C   0  0  0  0  0  0  0  0  0  0  0  0
    0.0000   -4.9500    0.0000 C   0  0  0  0  0  0  0  0  0  0  0  0
   -0.7145   -3.7125    0.0000 C   0  0  0  0  0  0  0  0  0  0  0  0
   -5.0013   -2.8875    0.0000 C   0  0  0  0  0  0  0  0  0  0  0  0
   -5.7158   -2.4750    0.0000 C   0  0  0  0  0  0  0  0  0  0  0  0
   -6.4302   -2.8875    0.0000 O   0  0  0  0  0  0  0  0  0  0  0  0
   -7.1447   -2.4750    0.0000 C   0  0  0  0  0  0  0  0  0  0  0  0
  1  2  1  0  0  0  0
  2  3  1  0  0  0  0
  3  4  2  0  0  0  0
  3 39  1  0  0  0  0
  4  5  1  0  0  0  0
  5  6  2  0  0  0  0
  6  7  1  0  0  0  0
  6 38  1  0  0  0  0
  7  8  1  0  0  0  0
  8  9  1  0  0  0  0
  8 10  1  0  0  0  0
 10 11  1  0  0  0  0
 11 12  1  0  0  0  0
 12 13  2  0  0  0  0
 12 37  1  0  0  0  0
 13 14  1  0  0  0  0
 14 15  2  0  0  0  0
 15 16  1  0  0  0  0
 15 35  1  0  0  0  0
 16 17  1  0  0  0  0
 17 18  2  0  0  0  0
 17 19  1  0  0  0  0
 19 20  2  0  0  0  0
 19 34  1  0  0  0  0
 20 21  1  0  0  0  0
 21 22  2  0  0  0  0
 22 23  1  0  0  0  0
 23 24  1  0  0  0  0
 23 34  2  0  0  0  0
 24 25  2  0  0  0  0
 24 26  1  0  0  0  0
 26 27  2  0  0  0  0
 26 32  1  0  0  0  0
 27 28  1  0  0  0  0
 27 29  1  0  0  0  0
 29 30  2  0  0  0  0
 30 31  1  0  0  0  0
 31 32  2  0  0  0  0
 32 33  1  0  0  0  0
 33 34  1  0  0  0  0
 35 36  1  0  0  0  0
 35 37  2  0  0  0  0
 38 39  2  0  0  0  0
 39 40  1  0  0  0  0
 40 41  1  0  0  0  0
M  END
$$$$

 OpenBabel12191814062D

 40 44  0  0  0  0  0  0  0  0999 V2000
   -7.1447   -1.6500    0.0000 C   0  0  0  0  0  0  0  0  0  0  0  0
   -6.4302   -1.2375    0.0000 O   0  0  0  0  0  0  0  0  0  0  0  0
   -5.7158   -1.6500    0.0000 C   0  0  0  0  0  0  0  0  0  0  0  0
   -5.0013   -1.2375    0.0000 C   0  0  0  0  0  0  0  0  0  0  0  0
   -4.2868   -1.6500    0.0000 C   0  0  0  0  0  0  0  0  0  0  0  0
   -4.2868   -2.4750    0.0000 C   0  0  0  0  0  0  0  0  0  0  0  0
   -3.5724   -2.8875    0.0000 C   0  0  0  0  0  0  0  0  0  0  0  0
   -2.8579   -2.4750    0.0000 N   0  0  0  0  0  0  0  0  0  0  0  0
   -2.8579   -1.6500    0.0000 C   0  0  0  0  0  0  0  0  0  0  0  0
   -2.1434   -2.8875    0.0000 C   0  0  0  0  0  0  0  0  0  0  0  0
   -1.4289   -2.4750    0.0000 C   0  0  0  0  0  0  0  0  0  0  0  0
   -0.7145   -2.8875    0.0000 C   0  0  0  0  0  0  0  0  0  0  0  0
    0.0000   -2.4750    0.0000 C   0  0  0  0  0  0  0  0  0  0  0  0
    0.7145   -2.8875    0.0000 C   0  0  0  0  0  0  0  0  0  0  0  0
    0.7145   -3.7125    0.0000 C   0  0  0  0  0  0  0  0  0  0  0  0
    1.4289   -4.1250    0.0000 N   0  0  0  0  0  0  0  0  0  0  0  0
    2.1434   -3.7125    0.0000 C   0  0  0  0  0  0  0  0  0  0  0  0
    2.8579   -4.1250    0.0000 O   0  0  0  0  0  0  0  0  0  0  0  0
    2.1434   -2.8875    0.0000 C   0  0  0  0  0  0  0  0  0  0  0  0
    1.4289   -2.4750    0.0000 C   0  0  0  0  0  0  0  0  0  0  0  0
    1.4289   -1.6500    0.0000 C   0  0  0  0  0  0  0  0  0  0  0  0
    2.1434   -1.2375    0.0000 C   0  0  0  0  0  0  0  0  0  0  0  0
    2.8579   -1.6500    0.0000 C   0  0  0  0  0  0  0  0  0  0  0  0
    3.5724   -1.2375    0.0000 C   0  0  0  0  0  0  0  0  0  0  0  0
    3.5724   -0.4125    0.0000 O   0  0  0  0  0  0  0  0  0  0  0  0
    4.2868   -1.6500    0.0000 C   0  0  0  0  0  0  0  0  0  0  0  0
    5.0013   -1.2375    0.0000 C   0  0  0  0  0  0  0  0  0  0  0  0
    5.7158   -1.6500    0.0000 C   0  0  0  0  0  0  0  0  0  0  0  0
    5.7158   -2.4750    0.0000 C   0  0  0  0  0  0  0  0  0  0  0  0
    5.0013   -2.8875    0.0000 C   0  0  0  0  0  0  0  0  0  0  0  0
    5.0013   -3.7125    0.0000 C   0  0  0  0  0  0  0  0  0  0  0  0
    4.2868   -2.4750    0.0000 C   0  0  0  0  0  0  0  0  0  0  0  0
    3.5724   -2.8875    0.0000 N   0  0  0  0  0  0  0  0  0  0  0  0
    2.8579   -2.4750    0.0000 C   0  0  0  0  0  0  0  0  0  0  0  0
    0.0000   -4.1250    0.0000 C   0  0  0  0  0  0  0  0  0  0  0  0
   -0.7145   -3.7125    0.0000 C   0  0  0  0  0  0  0  0  0  0  0  0
   -5.0013   -2.8875    0.0000 C   0  0  0  0  0  0  0  0  0  0  0  0
   -5.7158   -2.4750    0.0000 C   0  0  0  0  0  0  0  0  0  0  0  0
   -6.4302   -2.8875    0.0000 O   0  0  0  0  0  0  0  0  0  0  0  0
   -7.1447   -2.4750    0.0000 C   0  0  0  0  0  0  0  0  0  0  0  0
  1  2  1  0  0  0  0
  2  3  1  0  0  0  0
  3  4  2  0  0  0  0
  3 38  1  0  0  0  0
  4  5  1  0  0  0  0
  5  6  2  0  0  0  0
  6  7  1  0  0  0  0
  6 37  1  0  0  0  0
  7  8  1  0  0  0  0
  8  9  1  0  0  0  0
  8 10  1  0  0  0  0
 10 11  1  0  0  0  0
 11 12  1  0  0  0  0
 12 13  2  0  0  0  0
 12 36  1  0  0  0  0
 13 14  1  0  0  0  0
 14 15  2  0  0  0  0
 15 16  1  0  0  0  0
 15 35  1  0  0  0  0
 16 17  1  0  0  0  0
 17 18  2  0  0  0  0
 17 19  1  0  0  0  0
 19 20  2  0  0  0  0
 19 34  1  0  0  0  0
 20 21  1  0  0  0  0
 21 22  2  0  0  0  0
 22 23  1  0  0  0  0
 23 24  1  0  0  0  0
 23 34  2  0  0  0  0
 24 25  2  0  0  0  0
 24 26  1  0  0  0  0
 26 27  2  0  0  0  0
 26 32  1  0  0  0  0
 27 28  1  0  0  0  0
 28 29  2  0  0  0  0
 29 30  1  0  0  0  0
 30 31  1  0  0  0  0
 30 32  2  0  0  0  0
 32 33  1  0  0  0  0
 33 34  1  0  0  0  0
 35 36  2  0  0  0  0
 37 38  2  0  0  0  0
 38 39  1  0  0  0  0
 39 40  1  0  0  0  0
M  END
$$$$

 OpenBabel12191814062D

 42 46  0  0  0  0  0  0  0  0999 V2000
   -7.1447   -1.6500    0.0000 C   0  0  0  0  0  0  0  0  0  0  0  0
   -6.4302   -1.2375    0.0000 O   0  0  0  0  0  0  0  0  0  0  0  0
   -5.7158   -1.6500    0.0000 C   0  0  0  0  0  0  0  0  0  0  0  0
   -5.0013   -1.2375    0.0000 C   0  0  0  0  0  0  0  0  0  0  0  0
   -4.2868   -1.6500    0.0000 C   0  0  0  0  0  0  0  0  0  0  0  0
   -4.2868   -2.4750    0.0000 C   0  0  0  0  0  0  0  0  0  0  0  0
   -3.5724   -2.8875    0.0000 C   0  0  0  0  0  0  0  0  0  0  0  0
   -2.8579   -2.4750    0.0000 N   0  0  0  0  0  0  0  0  0  0  0  0
   -2.8579   -1.6500    0.0000 C   0  0  0  0  0  0  0  0  0  0  0  0
   -2.1434   -2.8875    0.0000 C   0  0  0  0  0  0  0  0  0  0  0  0
   -1.4289   -2.4750    0.0000 C   0  0  0  0  0  0  0  0  0  0  0  0
   -0.7145   -2.8875    0.0000 C   0  0  0  0  0  0  0  0  0  0  0  0
    0.0000   -2.4750    0.0000 C   0  0  0  0  0  0  0  0  0  0  0  0
    0.7145   -2.8875    0.0000 C   0  0  0  0  0  0  0  0  0  0  0  0
    0.7145   -3.7125    0.0000 C   0  0  0  0  0  0  0  0  0  0  0  0
    1.4289   -4.1250    0.0000 N   0  0  0  0  0  0  0  0  0  0  0  0
    2.1434   -3.7125    0.0000 C   0  0  0  0  0  0  0  0  0  0  0  0
    2.8579   -4.1250    0.0000 O   0  0  0  0  0  0  0  0  0  0  0  0
    2.1434   -2.8875    0.0000 C   0  0  0  0  0  0  0  0  0  0  0  0
    1.4289   -2.4750    0.0000 C   0  0  0  0  0  0  0  0  0  0  0  0
    1.4289   -1.6500    0.0000 C   0  0  0  0  0  0  0  0  0  0  0  0
    2.1434   -1.2375    0.0000 C   0  0  0  0  0  0  0  0  0  0  0  0
    2.8579   -1.6500    0.0000 C   0  0  0  0  0  0  0  0  0  0  0  0
    3.5724   -1.2375    0.0000 C   0  0  0  0  0  0  0  0  0  0  0  0
    3.5724   -0.4125    0.0000 O   0  0  0  0  0  0  0  0  0  0  0  0
    4.2868   -1.6500    0.0000 C   0  0  0  0  0  0  0  0  0  0  0  0
    5.0013   -1.2375    0.0000 C   0  0  0  0  0  0  0  0  0  0  0  0
    5.7158   -1.6500    0.0000 C   0  0  0  0  0  0  0  0  0  0  0  0
    5.7158   -2.4750    0.0000 C   0  0  0  0  0  0  0  0  0  0  0  0
    5.0013   -2.8875    0.0000 C   0  0  0  0  0  0  0  0  0  0  0  0
    4.2868   -2.4750    0.0000 C   0  0  0  0  0  0  0  0  0  0  0  0
    3.5724   -2.8875    0.0000 N   0  0  0  0  0  0  0  0  0  0  0  0
    2.8579   -2.4750    0.0000 C   0  0  0  0  0  0  0  0  0  0  0  0
    5.0013   -3.7125    0.0000 N   0  3  0  0  0  0  0  0  0  0  0  0
    4.2868   -4.1250    0.0000 O   0  5  0  0  0  0  0  0  0  0  0  0
    5.7158   -4.1250    0.0000 O   0  0  0  0  0  0  0  0  0  0  0  0
    0.0000   -4.1250    0.0000 C   0  0  0  0  0  0  0  0  0  0  0  0
   -0.7145   -3.7125    0.0000 C   0  0  0  0  0  0  0  0  0  0  0  0
   -5.0013   -2.8875    0.0000 C   0  0  0  0  0  0  0  0  0  0  0  0
   -5.7158   -2.4750    0.0000 C   0  0  0  0  0  0  0  0  0  0  0  0
   -6.4302   -2.8875    0.0000 O   0  0  0  0  0  0  0  0  0  0  0  0
   -7.1447   -2.4750    0.0000 C   0  0  0  0  0  0  0  0  0  0  0  0
  1  2  1  0  0  0  0
  2  3  1  0  0  0  0
  3  4  2  0  0  0  0
  3 40  1  0  0  0  0
  4  5  1  0  0  0  0
  5  6  2  0  0  0  0
  6  7  1  0  0  0  0
  6 39  1  0  0  0  0
  7  8  1  0  0  0  0
  8  9  1  0  0  0  0
  8 10  1  0  0  0  0
 10 11  1  0  0  0  0
 11 12  1  0  0  0  0
 12 13  2  0  0  0  0
 12 38  1  0  0  0  0
 13 14  1  0  0  0  0
 14 15  2  0  0  0  0
 15 16  1  0  0  0  0
 15 37  1  0  0  0  0
 16 17  1  0  0  0  0
 17 18  2  0  0  0  0
 17 19  1  0  0  0  0
 19 20  2  0  0  0  0
 19 33  1  0  0  0  0
 20 21  1  0  0  0  0
 21 22  2  0  0  0  0
 22 23  1  0  0  0  0
 23 24  1  0  0  0  0
 23 33  2  0  0  0  0
 24 25  2  0  0  0  0
 24 26  1  0  0  0  0
 26 27  2  0  0  0  0
 26 31  1  0  0  0  0
 27 28  1  0  0  0  0
 28 29  2  0  0  0  0
 29 30  1  0  0  0  0
 30 31  2  0  0  0  0
 30 34  1  0  0  0  0
 31 32  1  0  0  0  0
 32 33  1  0  0  0  0
 34 35  1  0  0  0  0
 34 36  2  0  0  0  0
 37 38  2  0  0  0  0
 39 40  2  0  0  0  0
 40 41  1  0  0  0  0
 41 42  1  0  0  0  0
M  CHG  2  34   1  35  -1
M  END
$$$$

 OpenBabel12191814062D

 40 44  0  0  0  0  0  0  0  0999 V2000
   -7.1447   -1.6500    0.0000 C   0  0  0  0  0  0  0  0  0  0  0  0
   -6.4302   -1.2375    0.0000 O   0  0  0  0  0  0  0  0  0  0  0  0
   -5.7158   -1.6500    0.0000 C   0  0  0  0  0  0  0  0  0  0  0  0
   -5.0013   -1.2375    0.0000 C   0  0  0  0  0  0  0  0  0  0  0  0
   -4.2868   -1.6500    0.0000 C   0  0  0  0  0  0  0  0  0  0  0  0
   -4.2868   -2.4750    0.0000 C   0  0  0  0  0  0  0  0  0  0  0  0
   -3.5724   -2.8875    0.0000 C   0  0  0  0  0  0  0  0  0  0  0  0
   -2.8579   -2.4750    0.0000 N   0  0  0  0  0  0  0  0  0  0  0  0
   -2.8579   -1.6500    0.0000 C   0  0  0  0  0  0  0  0  0  0  0  0
   -2.1434   -2.8875    0.0000 C   0  0  0  0  0  0  0  0  0  0  0  0
   -1.4289   -2.4750    0.0000 C   0  0  0  0  0  0  0  0  0  0  0  0
   -0.7145   -2.8875    0.0000 C   0  0  0  0  0  0  0  0  0  0  0  0
    0.0000   -2.4750    0.0000 C   0  0  0  0  0  0  0  0  0  0  0  0
    0.7145   -2.8875    0.0000 C   0  0  0  0  0  0  0  0  0  0  0  0
    0.7145   -3.7125    0.0000 C   0  0  0  0  0  0  0  0  0  0  0  0
    1.4289   -4.1250    0.0000 N   0  0  0  0  0  0  0  0  0  0  0  0
    2.1434   -3.7125    0.0000 C   0  0  0  0  0  0  0  0  0  0  0  0
    2.8579   -4.1250    0.0000 O   0  0  0  0  0  0  0  0  0  0  0  0
    2.1434   -2.8875    0.0000 C   0  0  0  0  0  0  0  0  0  0  0  0
    1.4289   -2.4750    0.0000 C   0  0  0  0  0  0  0  0  0  0  0  0
    1.4289   -1.6500    0.0000 C   0  0  0  0  0  0  0  0  0  0  0  0
    2.1434   -1.2375    0.0000 C   0  0  0  0  0  0  0  0  0  0  0  0
    2.8579   -1.6500    0.0000 C   0  0  0  0  0  0  0  0  0  0  0  0
    3.5724   -1.2375    0.0000 C   0  0  0  0  0  0  0  0  0  0  0  0
    3.5724   -0.4125    0.0000 O   0  0  0  0  0  0  0  0  0  0  0  0
    4.2868   -1.6500    0.0000 C   0  0  0  0  0  0  0  0  0  0  0  0
    5.0013   -1.2375    0.0000 C   0  0  0  0  0  0  0  0  0  0  0  0
    5.7158   -1.6500    0.0000 C   0  0  0  0  0  0  0  0  0  0  0  0
    5.7158   -2.4750    0.0000 C   0  0  0  0  0  0  0  0  0  0  0  0
    5.0013   -2.8875    0.0000 C   0  0  0  0  0  0  0  0  0  0  0  0
    5.0013   -3.7125    0.0000 F   0  0  0  0  0  0  0  0  0  0  0  0
    4.2868   -2.4750    0.0000 C   0  0  0  0  0  0  0  0  0  0  0  0
    3.5724   -2.8875    0.0000 N   0  0  0  0  0  0  0  0  0  0  0  0
    2.8579   -2.4750    0.0000 C   0  0  0  0  0  0  0  0  0  0  0  0
    0.0000   -4.1250    0.0000 C   0  0  0  0  0  0  0  0  0  0  0  0
   -0.7145   -3.7125    0.0000 C   0  0  0  0  0  0  0  0  0  0  0  0
   -5.0013   -2.8875    0.0000 C   0  0  0  0  0  0  0  0  0  0  0  0
   -5.7158   -2.4750    0.0000 C   0  0  0  0  0  0  0  0  0  0  0  0
   -6.4302   -2.8875    0.0000 O   0  0  0  0  0  0  0  0  0  0  0  0
   -7.1447   -2.4750    0.0000 C   0  0  0  0  0  0  0  0  0  0  0  0
  1  2  1  0  0  0  0
  2  3  1  0  0  0  0
  3  4  2  0  0  0  0
  3 38  1  0  0  0  0
  4  5  1  0  0  0  0
  5  6  2  0  0  0  0
  6  7  1  0  0  0  0
  6 37  1  0  0  0  0
  7  8  1  0  0  0  0
  8  9  1  0  0  0  0
  8 10  1  0  0  0  0
 10 11  1  0  0  0  0
 11 12  1  0  0  0  0
 12 13  2  0  0  0  0
 12 36  1  0  0  0  0
 13 14  1  0  0  0  0
 14 15  2  0  0  0  0
 15 16  1  0  0  0  0
 15 35  1  0  0  0  0
 16 17  1  0  0  0  0
 17 18  2  0  0  0  0
 17 19  1  0  0  0  0
 19 20  2  0  0  0  0
 19 34  1  0  0  0  0
 20 21  1  0  0  0  0
 21 22  2  0  0  0  0
 22 23  1  0  0  0  0
 23 24  1  0  0  0  0
 23 34  2  0  0  0  0
 24 25  2  0  0  0  0
 24 26  1  0  0  0  0
 26 27  2  0  0  0  0
 26 32  1  0  0  0  0
 27 28  1  0  0  0  0
 28 29  2  0  0  0  0
 29 30  1  0  0  0  0
 30 31  1  0  0  0  0
 30 32  2  0  0  0  0
 32 33  1  0  0  0  0
 33 34  1  0  0  0  0
 35 36  2  0  0  0  0
 37 38  2  0  0  0  0
 38 39  1  0  0  0  0
 39 40  1  0  0  0  0
M  END
$$$$

 OpenBabel12191814062D

 41 45  0  0  0  0  0  0  0  0999 V2000
   -7.1447   -1.6500    0.0000 C   0  0  0  0  0  0  0  0  0  0  0  0
   -6.4302   -1.2375    0.0000 O   0  0  0  0  0  0  0  0  0  0  0  0
   -5.7158   -1.6500    0.0000 C   0  0  0  0  0  0  0  0  0  0  0  0
   -5.0013   -1.2375    0.0000 C   0  0  0  0  0  0  0  0  0  0  0  0
   -4.2868   -1.6500    0.0000 C   0  0  0  0  0  0  0  0  0  0  0  0
   -4.2868   -2.4750    0.0000 C   0  0  0  0  0  0  0  0  0  0  0  0
   -3.5724   -2.8875    0.0000 C   0  0  0  0  0  0  0  0  0  0  0  0
   -2.8579   -2.4750    0.0000 N   0  0  0  0  0  0  0  0  0  0  0  0
   -2.8579   -1.6500    0.0000 C   0  0  0  0  0  0  0  0  0  0  0  0
   -2.1434   -2.8875    0.0000 C   0  0  0  0  0  0  0  0  0  0  0  0
   -1.4289   -2.4750    0.0000 C   0  0  0  0  0  0  0  0  0  0  0  0
   -0.7145   -2.8875    0.0000 C   0  0  0  0  0  0  0  0  0  0  0  0
    0.0000   -2.4750    0.0000 C   0  0  0  0  0  0  0  0  0  0  0  0
    0.7145   -2.8875    0.0000 C   0  0  0  0  0  0  0  0  0  0  0  0
    0.7145   -3.7125    0.0000 C   0  0  0  0  0  0  0  0  0  0  0  0
    1.4289   -4.1250    0.0000 N   0  0  0  0  0  0  0  0  0  0  0  0
    2.1434   -3.7125    0.0000 C   0  0  0  0  0  0  0  0  0  0  0  0
    2.8579   -4.1250    0.0000 O   0  0  0  0  0  0  0  0  0  0  0  0
    2.1434   -2.8875    0.0000 C   0  0  0  0  0  0  0  0  0  0  0  0
    1.4289   -2.4750    0.0000 C   0  0  0  0  0  0  0  0  0  0  0  0
    1.4289   -1.6500    0.0000 C   0  0  0  0  0  0  0  0  0  0  0  0
    2.1434   -1.2375    0.0000 C   0  0  0  0  0  0  0  0  0  0  0  0
    2.8579   -1.6500    0.0000 C   0  0  0  0  0  0  0  0  0  0  0  0
    3.5724   -1.2375    0.0000 C   0  0  0  0  0  0  0  0  0  0  0  0
    3.5724   -0.4125    0.0000 O   0  0  0  0  0  0  0  0  0  0  0  0
    4.2868   -1.6500    0.0000 C   0  0  0  0  0  0  0  0  0  0  0  0
    5.0013   -1.2375    0.0000 C   0  0  0  0  0  0  0  0  0  0  0  0
    5.7158   -1.6500    0.0000 C   0  0  0  0  0  0  0  0  0  0  0  0
    5.7158   -2.4750    0.0000 C   0  0  0  0  0  0  0  0  0  0  0  0
    5.0013   -2.8875    0.0000 C   0  0  0  0  0  0  0  0  0  0  0  0
    5.0013   -3.7125    0.0000 O   0  0  0  0  0  0  0  0  0  0  0  0
    4.2868   -4.1250    0.0000 C   0  0  0  0  0  0  0  0  0  0  0  0
    4.2868   -2.4750    0.0000 C   0  0  0  0  0  0  0  0  0  0  0  0
    3.5724   -2.8875    0.0000 N   0  0  0  0  0  0  0  0  0  0  0  0
    2.8579   -2.4750    0.0000 C   0  0  0  0  0  0  0  0  0  0  0  0
    0.0000   -4.1250    0.0000 C   0  0  0  0  0  0  0  0  0  0  0  0
   -0.7145   -3.7125    0.0000 C   0  0  0  0  0  0  0  0  0  0  0  0
   -5.0013   -2.8875    0.0000 C   0  0  0  0  0  0  0  0  0  0  0  0
   -5.7158   -2.4750    0.0000 C   0  0  0  0  0  0  0  0  0  0  0  0
   -6.4302   -2.8875    0.0000 O   0  0  0  0  0  0  0  0  0  0  0  0
   -7.1447   -2.4750    0.0000 C   0  0  0  0  0  0  0  0  0  0  0  0
  1  2  1  0  0  0  0
  2  3  1  0  0  0  0
  3  4  2  0  0  0  0
  3 39  1  0  0  0  0
  4  5  1  0  0  0  0
  5  6  2  0  0  0  0
  6  7  1  0  0  0  0
  6 38  1  0  0  0  0
  7  8  1  0  0  0  0
  8  9  1  0  0  0  0
  8 10  1  0  0  0  0
 10 11  1  0  0  0  0
 11 12  1  0  0  0  0
 12 13  2  0  0  0  0
 12 37  1  0  0  0  0
 13 14  1  0  0  0  0
 14 15  2  0  0  0  0
 15 16  1  0  0  0  0
 15 36  1  0  0  0  0
 16 17  1  0  0  0  0
 17 18  2  0  0  0  0
 17 19  1  0  0  0  0
 19 20  2  0  0  0  0
 19 35  1  0  0  0  0
 20 21  1  0  0  0  0
 21 22  2  0  0  0  0
 22 23  1  0  0  0  0
 23 24  1  0  0  0  0
 23 35  2  0  0  0  0
 24 25  2  0  0  0  0
 24 26  1  0  0  0  0
 26 27  2  0  0  0  0
 26 33  1  0  0  0  0
 27 28  1  0  0  0  0
 28 29  2  0  0  0  0
 29 30  1  0  0  0  0
 30 31  1  0  0  0  0
 30 33  2  0  0  0  0
 31 32  1  0  0  0  0
 33 34  1  0  0  0  0
 34 35  1  0  0  0  0
 36 37  2  0  0  0  0
 38 39  2  0  0  0  0
 39 40  1  0  0  0  0
 40 41  1  0  0  0  0
M  END
$$$$

 OpenBabel12191814062D

 40 44  0  0  0  0  0  0  0  0999 V2000
   -7.1447   -1.6500    0.0000 C   0  0  0  0  0  0  0  0  0  0  0  0
   -6.4302   -1.2375    0.0000 O   0  0  0  0  0  0  0  0  0  0  0  0
   -5.7158   -1.6500    0.0000 C   0  0  0  0  0  0  0  0  0  0  0  0
   -5.0013   -1.2375    0.0000 C   0  0  0  0  0  0  0  0  0  0  0  0
   -4.2868   -1.6500    0.0000 C   0  0  0  0  0  0  0  0  0  0  0  0
   -4.2868   -2.4750    0.0000 C   0  0  0  0  0  0  0  0  0  0  0  0
   -3.5724   -2.8875    0.0000 C   0  0  0  0  0  0  0  0  0  0  0  0
   -2.8579   -2.4750    0.0000 N   0  0  0  0  0  0  0  0  0  0  0  0
   -2.8579   -1.6500    0.0000 C   0  0  0  0  0  0  0  0  0  0  0  0
   -2.1434   -2.8875    0.0000 C   0  0  0  0  0  0  0  0  0  0  0  0
   -1.4289   -2.4750    0.0000 C   0  0  0  0  0  0  0  0  0  0  0  0
   -0.7145   -2.8875    0.0000 C   0  0  0  0  0  0  0  0  0  0  0  0
    0.0000   -2.4750    0.0000 C   0  0  0  0  0  0  0  0  0  0  0  0
    0.7145   -2.8875    0.0000 C   0  0  0  0  0  0  0  0  0  0  0  0
    0.7145   -3.7125    0.0000 C   0  0  0  0  0  0  0  0  0  0  0  0
    1.4289   -4.1250    0.0000 N   0  0  0  0  0  0  0  0  0  0  0  0
    2.1434   -3.7125    0.0000 C   0  0  0  0  0  0  0  0  0  0  0  0
    2.8579   -4.1250    0.0000 O   0  0  0  0  0  0  0  0  0  0  0  0
    2.1434   -2.8875    0.0000 C   0  0  0  0  0  0  0  0  0  0  0  0
    1.4289   -2.4750    0.0000 C   0  0  0  0  0  0  0  0  0  0  0  0
    1.4289   -1.6500    0.0000 C   0  0  0  0  0  0  0  0  0  0  0  0
    2.1434   -1.2375    0.0000 C   0  0  0  0  0  0  0  0  0  0  0  0
    2.8579   -1.6500    0.0000 C   0  0  0  0  0  0  0  0  0  0  0  0
    3.5724   -1.2375    0.0000 C   0  0  0  0  0  0  0  0  0  0  0  0
    3.5724   -0.4125    0.0000 O   0  0  0  0  0  0  0  0  0  0  0  0
    4.2868   -1.6500    0.0000 C   0  0  0  0  0  0  0  0  0  0  0  0
    5.0013   -1.2375    0.0000 C   0  0  0  0  0  0  0  0  0  0  0  0
    5.7158   -1.6500    0.0000 C   0  0  0  0  0  0  0  0  0  0  0  0
    5.7158   -2.4750    0.0000 C   0  0  0  0  0  0  0  0  0  0  0  0
    5.0013   -2.8875    0.0000 C   0  0  0  0  0  0  0  0  0  0  0  0
    4.2868   -2.4750    0.0000 C   0  0  0  0  0  0  0  0  0  0  0  0
    3.5724   -2.8875    0.0000 N   0  0  0  0  0  0  0  0  0  0  0  0
    3.5724   -3.7125    0.0000 C   0  0  0  0  0  0  0  0  0  0  0  0
    2.8579   -2.4750    0.0000 C   0  0  0  0  0  0  0  0  0  0  0  0
    0.0000   -4.1250    0.0000 C   0  0  0  0  0  0  0  0  0  0  0  0
   -0.7145   -3.7125    0.0000 C   0  0  0  0  0  0  0  0  0  0  0  0
   -5.0013   -2.8875    0.0000 C   0  0  0  0  0  0  0  0  0  0  0  0
   -5.7158   -2.4750    0.0000 C   0  0  0  0  0  0  0  0  0  0  0  0
   -6.4302   -2.8875    0.0000 O   0  0  0  0  0  0  0  0  0  0  0  0
   -7.1447   -2.4750    0.0000 C   0  0  0  0  0  0  0  0  0  0  0  0
  1  2  1  0  0  0  0
  2  3  1  0  0  0  0
  3  4  2  0  0  0  0
  3 38  1  0  0  0  0
  4  5  1  0  0  0  0
  5  6  2  0  0  0  0
  6  7  1  0  0  0  0
  6 37  1  0  0  0  0
  7  8  1  0  0  0  0
  8  9  1  0  0  0  0
  8 10  1  0  0  0  0
 10 11  1  0  0  0  0
 11 12  1  0  0  0  0
 12 13  2  0  0  0  0
 12 36  1  0  0  0  0
 13 14  1  0  0  0  0
 14 15  2  0  0  0  0
 15 16  1  0  0  0  0
 15 35  1  0  0  0  0
 16 17  1  0  0  0  0
 17 18  2  0  0  0  0
 17 19  1  0  0  0  0
 19 20  2  0  0  0  0
 19 34  1  0  0  0  0
 20 21  1  0  0  0  0
 21 22  2  0  0  0  0
 22 23  1  0  0  0  0
 23 24  1  0  0  0  0
 23 34  2  0  0  0  0
 24 25  2  0  0  0  0
 24 26  1  0  0  0  0
 26 27  2  0  0  0  0
 26 31  1  0  0  0  0
 27 28  1  0  0  0  0
 28 29  2  0  0  0  0
 29 30  1  0  0  0  0
 30 31  2  0  0  0  0
 31 32  1  0  0  0  0
 32 33  1  0  0  0  0
 32 34  1  0  0  0  0
 35 36  2  0  0  0  0
 37 38  2  0  0  0  0
 38 39  1  0  0  0  0
 39 40  1  0  0  0  0
M  END
$$$$

 OpenBabel12191814062D

 39 43  0  0  0  0  0  0  0  0999 V2000
   -7.1447   -1.6500    0.0000 C   0  0  0  0  0  0  0  0  0  0  0  0
   -6.4302   -1.2375    0.0000 O   0  0  0  0  0  0  0  0  0  0  0  0
   -5.7158   -1.6500    0.0000 C   0  0  0  0  0  0  0  0  0  0  0  0
   -5.0013   -1.2375    0.0000 C   0  0  0  0  0  0  0  0  0  0  0  0
   -4.2868   -1.6500    0.0000 C   0  0  0  0  0  0  0  0  0  0  0  0
   -4.2868   -2.4750    0.0000 C   0  0  0  0  0  0  0  0  0  0  0  0
   -3.5724   -2.8875    0.0000 C   0  0  0  0  0  0  0  0  0  0  0  0
   -2.8579   -2.4750    0.0000 N   0  0  0  0  0  0  0  0  0  0  0  0
   -2.8579   -1.6500    0.0000 C   0  0  0  0  0  0  0  0  0  0  0  0
   -2.1434   -2.8875    0.0000 C   0  0  0  0  0  0  0  0  0  0  0  0
   -1.4289   -2.4750    0.0000 C   0  0  0  0  0  0  0  0  0  0  0  0
   -0.7145   -2.8875    0.0000 C   0  0  0  0  0  0  0  0  0  0  0  0
    0.0000   -2.4750    0.0000 C   0  0  0  0  0  0  0  0  0  0  0  0
    0.7145   -2.8875    0.0000 C   0  0  0  0  0  0  0  0  0  0  0  0
    0.7145   -3.7125    0.0000 C   0  0  0  0  0  0  0  0  0  0  0  0
    1.4289   -4.1250    0.0000 N   0  0  0  0  0  0  0  0  0  0  0  0
    2.1434   -3.7125    0.0000 C   0  0  0  0  0  0  0  0  0  0  0  0
    2.8579   -4.1250    0.0000 O   0  0  0  0  0  0  0  0  0  0  0  0
    2.1434   -2.8875    0.0000 C   0  0  0  0  0  0  0  0  0  0  0  0
    1.4289   -2.4750    0.0000 C   0  0  0  0  0  0  0  0  0  0  0  0
    1.4289   -1.6500    0.0000 C   0  0  0  0  0  0  0  0  0  0  0  0
    2.1434   -1.2375    0.0000 C   0  0  0  0  0  0  0  0  0  0  0  0
    2.8579   -1.6500    0.0000 C   0  0  0  0  0  0  0  0  0  0  0  0
    3.5724   -1.2375    0.0000 C   0  0  0  0  0  0  0  0  0  0  0  0
    3.5724   -0.4125    0.0000 O   0  0  0  0  0  0  0  0  0  0  0  0
    4.2868   -1.6500    0.0000 C   0  0  0  0  0  0  0  0  0  0  0  0
    5.0013   -1.2375    0.0000 C   0  0  0  0  0  0  0  0  0  0  0  0
    5.7158   -1.6500    0.0000 C   0  0  0  0  0  0  0  0  0  0  0  0
    5.7158   -2.4750    0.0000 C   0  0  0  0  0  0  0  0  0  0  0  0
    5.0013   -2.8875    0.0000 C   0  0  0  0  0  0  0  0  0  0  0  0
    4.2868   -2.4750    0.0000 C   0  0  0  0  0  0  0  0  0  0  0  0
    3.5724   -2.8875    0.0000 N   0  0  0  0  0  0  0  0  0  0  0  0
    2.8579   -2.4750    0.0000 C   0  0  0  0  0  0  0  0  0  0  0  0
    0.0000   -4.1250    0.0000 C   0  0  0  0  0  0  0  0  0  0  0  0
   -0.7145   -3.7125    0.0000 C   0  0  0  0  0  0  0  0  0  0  0  0
   -5.0013   -2.8875    0.0000 C   0  0  0  0  0  0  0  0  0  0  0  0
   -5.7158   -2.4750    0.0000 C   0  0  0  0  0  0  0  0  0  0  0  0
   -6.4302   -2.8875    0.0000 O   0  0  0  0  0  0  0  0  0  0  0  0
   -7.1447   -2.4750    0.0000 C   0  0  0  0  0  0  0  0  0  0  0  0
  1  2  1  0  0  0  0
  2  3  1  0  0  0  0
  3  4  2  0  0  0  0
  3 37  1  0  0  0  0
  4  5  1  0  0  0  0
  5  6  2  0  0  0  0
  6  7  1  0  0  0  0
  6 36  1  0  0  0  0
  7  8  1  0  0  0  0
  8  9  1  0  0  0  0
  8 10  1  0  0  0  0
 10 11  1  0  0  0  0
 11 12  1  0  0  0  0
 12 13  2  0  0  0  0
 12 35  1  0  0  0  0
 13 14  1  0  0  0  0
 14 15  2  0  0  0  0
 15 16  1  0  0  0  0
 15 34  1  0  0  0  0
 16 17  1  0  0  0  0
 17 18  2  0  0  0  0
 17 19  1  0  0  0  0
 19 20  2  0  0  0  0
 19 33  1  0  0  0  0
 20 21  1  0  0  0  0
 21 22  2  0  0  0  0
 22 23  1  0  0  0  0
 23 24  1  0  0  0  0
 23 33  2  0  0  0  0
 24 25  2  0  0  0  0
 24 26  1  0  0  0  0
 26 27  2  0  0  0  0
 26 31  1  0  0  0  0
 27 28  1  0  0  0  0
 28 29  2  0  0  0  0
 29 30  1  0  0  0  0
 30 31  2  0  0  0  0
 31 32  1  0  0  0  0
 32 33  1  0  0  0  0
 34 35  2  0  0  0  0
 36 37  2  0  0  0  0
 37 38  1  0  0  0  0
 38 39  1  0  0  0  0
M  END
$$$$

 OpenBabel12191814062D

 42 46  0  0  0  0  0  0  0  0999 V2000
   -9.2881   -6.1875    0.0000 C   0  0  0  0  0  0  0  0  0  0  0  0
   -9.2881   -5.3625    0.0000 O   0  0  0  0  0  0  0  0  0  0  0  0
   -8.5737   -4.9500    0.0000 C   0  0  0  0  0  0  0  0  0  0  0  0
   -8.5737   -4.1250    0.0000 C   0  0  0  0  0  0  0  0  0  0  0  0
   -7.8592   -3.7125    0.0000 C   0  0  0  0  0  0  0  0  0  0  0  0
   -7.1447   -4.1250    0.0000 C   0  0  0  0  0  0  0  0  0  0  0  0
   -6.4302   -3.7125    0.0000 C   0  0  0  0  0  0  0  0  0  0  0  0
   -6.4302   -2.8875    0.0000 N   0  0  0  0  0  0  0  0  0  0  0  0
   -7.1447   -2.4750    0.0000 C   0  0  0  0  0  0  0  0  0  0  0  0
   -5.7158   -2.4750    0.0000 C   0  0  0  0  0  0  0  0  0  0  0  0
   -5.7158   -1.6500    0.0000 C   0  0  0  0  0  0  0  0  0  0  0  0
   -5.0013   -1.2375    0.0000 C   0  0  0  0  0  0  0  0  0  0  0  0
   -5.0013   -0.4125    0.0000 C   0  0  0  0  0  0  0  0  0  0  0  0
   -4.2868   -0.0000    0.0000 C   0  0  0  0  0  0  0  0  0  0  0  0
   -3.5724   -0.4125    0.0000 C   0  0  0  0  0  0  0  0  0  0  0  0
   -2.8579   -0.0000    0.0000 N   0  0  0  0  0  0  0  0  0  0  0  0
   -2.1434   -0.4125    0.0000 C   0  0  0  0  0  0  0  0  0  0  0  0
   -2.1434   -1.2375    0.0000 O   0  0  0  0  0  0  0  0  0  0  0  0
   -1.4289   -0.0000    0.0000 C   0  0  0  0  0  0  0  0  0  0  0  0
   -1.4289    0.8250    0.0000 C   0  0  0  0  0  0  0  0  0  0  0  0
   -0.7145    1.2375    0.0000 C   0  0  0  0  0  0  0  0  0  0  0  0
    0.0000    0.8250    0.0000 C   0  0  0  0  0  0  0  0  0  0  0  0
    0.0000   -0.0000    0.0000 C   0  0  0  0  0  0  0  0  0  0  0  0
   -0.7145   -0.4125    0.0000 C   0  0  0  0  0  0  0  0  0  0  0  0
   -0.7145   -1.2375    0.0000 N   0  0  0  0  0  0  0  0  0  0  0  0
    0.0000   -1.6500    0.0000 C   0  0  0  0  0  0  0  0  0  0  0  0
    0.0000   -2.4750    0.0000 O   0  0  0  0  0  0  0  0  0  0  0  0
    0.7145   -1.2375    0.0000 C   0  0  0  0  0  0  0  0  0  0  0  0
    0.7145   -0.4125    0.0000 C   0  0  0  0  0  0  0  0  0  0  0  0
    1.4289    0.0000    0.0000 N   0  0  0  0  0  0  0  0  0  0  0  0
    2.1434   -0.4125    0.0000 C   0  0  0  0  0  0  0  0  0  0  0  0
    2.8579    0.0000    0.0000 C   0  0  0  0  0  0  0  0  0  0  0  0
    3.5724   -0.4125    0.0000 C   0  0  0  0  0  0  0  0  0  0  0  0
    3.5724   -1.2375    0.0000 C   0  0  0  0  0  0  0  0  0  0  0  0
    2.8579   -1.6500    0.0000 C   0  0  0  0  0  0  0  0  0  0  0  0
    2.1434   -1.2375    0.0000 C   0  0  0  0  0  0  0  0  0  0  0  0
    1.4289   -1.6500    0.0000 C   0  0  0  0  0  0  0  0  0  0  0  0
   -3.5724   -1.2375    0.0000 C   0  0  0  0  0  0  0  0  0  0  0  0
   -4.2868   -1.6500    0.0000 C   0  0  0  0  0  0  0  0  0  0  0  0
   -7.1447   -4.9500    0.0000 C   0  0  0  0  0  0  0  0  0  0  0  0
   -7.8592   -5.3625    0.0000 C   0  0  0  0  0  0  0  0  0  0  0  0
   -7.8592   -6.1875    0.0000 O   0  0  0  0  0  0  0  0  0  0  0  0
  1  2  1  0  0  0  0
  2  3  1  0  0  0  0
  3  4  2  0  0  0  0
  3 41  1  0  0  0  0
  4  5  1  0  0  0  0
  5  6  2  0  0  0  0
  6  7  1  0  0  0  0
  6 40  1  0  0  0  0
  7  8  1  0  0  0  0
  8  9  1  0  0  0  0
  8 10  1  0  0  0  0
 10 11  1  0  0  0  0
 11 12  1  0  0  0  0
 12 13  2  0  0  0  0
 12 39  1  0  0  0  0
 13 14  1  0  0  0  0
 14 15  2  0  0  0  0
 15 16  1  0  0  0  0
 15 38  1  0  0  0  0
 16 17  1  0  0  0  0
 17 18  2  0  0  0  0
 17 19  1  0  0  0  0
 19 20  2  0  0  0  0
 19 24  1  0  0  0  0
 20 21  1  0  0  0  0
 21 22  2  0  0  0  0
 22 23  1  0  0  0  0
 23 24  2  0  0  0  0
 24 25  1  0  0  0  0
 25 26  1  0  0  0  0
 26 27  2  0  0  0  0
 26 28  1  0  0  0  0
 28 29  2  0  0  0  0
 28 37  1  0  0  0  0
 29 30  1  0  0  0  0
 30 31  2  0  0  0  0
 31 32  1  0  0  0  0
 31 36  1  0  0  0  0
 32 33  2  0  0  0  0
 33 34  1  0  0  0  0
 34 35  2  0  0  0  0
 35 36  1  0  0  0  0
 36 37  2  0  0  0  0
 38 39  2  0  0  0  0
 40 41  2  0  0  0  0
 41 42  1  0  0  0  0
M  END
$$$$

 OpenBabel12191814062D

 43 47  0  0  0  0  0  0  0  0999 V2000
   -9.2881   -6.1875    0.0000 C   0  0  0  0  0  0  0  0  0  0  0  0
   -9.2881   -5.3625    0.0000 O   0  0  0  0  0  0  0  0  0  0  0  0
   -8.5737   -4.9500    0.0000 C   0  0  0  0  0  0  0  0  0  0  0  0
   -8.5737   -4.1250    0.0000 C   0  0  0  0  0  0  0  0  0  0  0  0
   -7.8592   -3.7125    0.0000 C   0  0  0  0  0  0  0  0  0  0  0  0
   -7.1447   -4.1250    0.0000 C   0  0  0  0  0  0  0  0  0  0  0  0
   -6.4302   -3.7125    0.0000 C   0  0  0  0  0  0  0  0  0  0  0  0
   -6.4302   -2.8875    0.0000 N   0  0  0  0  0  0  0  0  0  0  0  0
   -7.1447   -2.4750    0.0000 C   0  0  0  0  0  0  0  0  0  0  0  0
   -5.7158   -2.4750    0.0000 C   0  0  0  0  0  0  0  0  0  0  0  0
   -5.7158   -1.6500    0.0000 C   0  0  0  0  0  0  0  0  0  0  0  0
   -5.0013   -1.2375    0.0000 C   0  0  0  0  0  0  0  0  0  0  0  0
   -5.0013   -0.4125    0.0000 C   0  0  0  0  0  0  0  0  0  0  0  0
   -4.2868   -0.0000    0.0000 C   0  0  0  0  0  0  0  0  0  0  0  0
   -3.5724   -0.4125    0.0000 C   0  0  0  0  0  0  0  0  0  0  0  0
   -2.8579   -0.0000    0.0000 N   0  0  0  0  0  0  0  0  0  0  0  0
   -2.1434   -0.4125    0.0000 C   0  0  0  0  0  0  0  0  0  0  0  0
   -2.1434   -1.2375    0.0000 O   0  0  0  0  0  0  0  0  0  0  0  0
   -1.4289   -0.0000    0.0000 C   0  0  0  0  0  0  0  0  0  0  0  0
   -1.4289    0.8250    0.0000 C   0  0  0  0  0  0  0  0  0  0  0  0
   -0.7145    1.2375    0.0000 C   0  0  0  0  0  0  0  0  0  0  0  0
    0.0000    0.8250    0.0000 C   0  0  0  0  0  0  0  0  0  0  0  0
    0.0000   -0.0000    0.0000 C   0  0  0  0  0  0  0  0  0  0  0  0
   -0.7145   -0.4125    0.0000 C   0  0  0  0  0  0  0  0  0  0  0  0
   -0.7145   -1.2375    0.0000 N   0  0  0  0  0  0  0  0  0  0  0  0
    0.0000   -1.6500    0.0000 C   0  0  0  0  0  0  0  0  0  0  0  0
    0.0000   -2.4750    0.0000 O   0  0  0  0  0  0  0  0  0  0  0  0
    0.7145   -1.2375    0.0000 C   0  0  0  0  0  0  0  0  0  0  0  0
    0.7145   -0.4125    0.0000 C   0  0  0  0  0  0  0  0  0  0  0  0
    1.4289    0.0000    0.0000 N   0  0  0  0  0  0  0  0  0  0  0  0
    2.1434   -0.4125    0.0000 C   0  0  0  0  0  0  0  0  0  0  0  0
    2.8579    0.0000    0.0000 C   0  0  0  0  0  0  0  0  0  0  0  0
    3.5724   -0.4125    0.0000 C   0  0  0  0  0  0  0  0  0  0  0  0
    3.5724   -1.2375    0.0000 C   0  0  0  0  0  0  0  0  0  0  0  0
    2.8579   -1.6500    0.0000 C   0  0  0  0  0  0  0  0  0  0  0  0
    2.1434   -1.2375    0.0000 C   0  0  0  0  0  0  0  0  0  0  0  0
    1.4289   -1.6500    0.0000 N   0  0  0  0  0  0  0  0  0  0  0  0
   -3.5724   -1.2375    0.0000 C   0  0  0  0  0  0  0  0  0  0  0  0
   -4.2868   -1.6500    0.0000 C   0  0  0  0  0  0  0  0  0  0  0  0
   -7.1447   -4.9500    0.0000 C   0  0  0  0  0  0  0  0  0  0  0  0
   -7.8592   -5.3625    0.0000 C   0  0  0  0  0  0  0  0  0  0  0  0
   -7.8592   -6.1875    0.0000 O   0  0  0  0  0  0  0  0  0  0  0  0
   -8.5737   -6.6000    0.0000 C   0  0  0  0  0  0  0  0  0  0  0  0
  1  2  1  0  0  0  0
  2  3  1  0  0  0  0
  3  4  2  0  0  0  0
  3 41  1  0  0  0  0
  4  5  1  0  0  0  0
  5  6  2  0  0  0  0
  6  7  1  0  0  0  0
  6 40  1  0  0  0  0
  7  8  1  0  0  0  0
  8  9  1  0  0  0  0
  8 10  1  0  0  0  0
 10 11  1  0  0  0  0
 11 12  1  0  0  0  0
 12 13  2  0  0  0  0
 12 39  1  0  0  0  0
 13 14  1  0  0  0  0
 14 15  2  0  0  0  0
 15 16  1  0  0  0  0
 15 38  1  0  0  0  0
 16 17  1  0  0  0  0
 17 18  2  0  0  0  0
 17 19  1  0  0  0  0
 19 20  2  0  0  0  0
 19 24  1  0  0  0  0
 20 21  1  0  0  0  0
 21 22  2  0  0  0  0
 22 23  1  0  0  0  0
 23 24  2  0  0  0  0
 24 25  1  0  0  0  0
 25 26  1  0  0  0  0
 26 27  2  0  0  0  0
 26 28  1  0  0  0  0
 28 29  2  0  0  0  0
 28 37  1  0  0  0  0
 29 30  1  0  0  0  0
 30 31  2  0  0  0  0
 31 32  1  0  0  0  0
 31 36  1  0  0  0  0
 32 33  2  0  0  0  0
 33 34  1  0  0  0  0
 34 35  2  0  0  0  0
 35 36  1  0  0  0  0
 36 37  2  0  0  0  0
 38 39  2  0  0  0  0
 40 41  2  0  0  0  0
 41 42  1  0  0  0  0
 42 43  1  0  0  0  0
M  END
$$$$

 OpenBabel12191814062D

 40 44  0  0  0  0  0  0  0  0999 V2000
   -7.1447   -4.9500    0.0000 C   0  0  0  0  0  0  0  0  0  0  0  0
   -7.1447   -4.1250    0.0000 O   0  0  0  0  0  0  0  0  0  0  0  0
   -6.4302   -3.7125    0.0000 C   0  0  0  0  0  0  0  0  0  0  0  0
   -6.4302   -2.8875    0.0000 C   0  0  0  0  0  0  0  0  0  0  0  0
   -5.7158   -2.4750    0.0000 C   0  0  0  0  0  0  0  0  0  0  0  0
   -5.0013   -2.8875    0.0000 C   0  0  0  0  0  0  0  0  0  0  0  0
   -4.2868   -2.4750    0.0000 C   0  0  0  0  0  0  0  0  0  0  0  0
   -3.5724   -2.8875    0.0000 N   0  0  0  0  0  0  0  0  0  0  0  0
   -3.5724   -3.7125    0.0000 C   0  0  0  0  0  0  0  0  0  0  0  0
   -2.8579   -2.4750    0.0000 C   0  0  0  0  0  0  0  0  0  0  0  0
   -2.1434   -2.8875    0.0000 C   0  0  0  0  0  0  0  0  0  0  0  0
   -1.4289   -2.4750    0.0000 C   0  0  0  0  0  0  0  0  0  0  0  0
   -0.7145   -2.8875    0.0000 C   0  0  0  0  0  0  0  0  0  0  0  0
    0.0000   -2.4750    0.0000 C   0  0  0  0  0  0  0  0  0  0  0  0
    0.7145   -2.8875    0.0000 C   0  0  0  0  0  0  0  0  0  0  0  0
    0.7145   -3.7125    0.0000 C   0  0  0  0  0  0  0  0  0  0  0  0
    1.4289   -4.1250    0.0000 N   0  0  0  0  0  0  0  0  0  0  0  0
    2.1434   -3.7125    0.0000 C   0  0  0  0  0  0  0  0  0  0  0  0
    2.8579   -4.1250    0.0000 O   0  0  0  0  0  0  0  0  0  0  0  0
    2.1434   -2.8875    0.0000 C   0  0  0  0  0  0  0  0  0  0  0  0
    1.4289   -2.4750    0.0000 C   0  0  0  0  0  0  0  0  0  0  0  0
    1.4289   -1.6500    0.0000 C   0  0  0  0  0  0  0  0  0  0  0  0
    2.1434   -1.2375    0.0000 C   0  0  0  0  0  0  0  0  0  0  0  0
    2.8579   -1.6500    0.0000 C   0  0  0  0  0  0  0  0  0  0  0  0
    3.5724   -1.2375    0.0000 C   0  0  0  0  0  0  0  0  0  0  0  0
    3.5724   -0.4125    0.0000 O   0  0  0  0  0  0  0  0  0  0  0  0
    4.2868   -1.6500    0.0000 C   0  0  0  0  0  0  0  0  0  0  0  0
    5.0013   -1.2375    0.0000 C   0  0  0  0  0  0  0  0  0  0  0  0
    5.7158   -1.6500    0.0000 C   0  0  0  0  0  0  0  0  0  0  0  0
    5.7158   -2.4750    0.0000 C   0  0  0  0  0  0  0  0  0  0  0  0
    5.0013   -2.8875    0.0000 C   0  0  0  0  0  0  0  0  0  0  0  0
    4.2868   -2.4750    0.0000 C   0  0  0  0  0  0  0  0  0  0  0  0
    3.5724   -2.8875    0.0000 N   0  0  0  0  0  0  0  0  0  0  0  0
    2.8579   -2.4750    0.0000 C   0  0  0  0  0  0  0  0  0  0  0  0
    0.0000   -4.1250    0.0000 C   0  0  0  0  0  0  0  0  0  0  0  0
   -0.7145   -3.7125    0.0000 C   0  0  0  0  0  0  0  0  0  0  0  0
   -5.0013   -3.7125    0.0000 C   0  0  0  0  0  0  0  0  0  0  0  0
   -5.7158   -4.1250    0.0000 C   0  0  0  0  0  0  0  0  0  0  0  0
   -5.7158   -4.9500    0.0000 O   0  0  0  0  0  0  0  0  0  0  0  0
   -6.4302   -5.3625    0.0000 C   0  0  0  0  0  0  0  0  0  0  0  0
  1  2  1  0  0  0  0
  2  3  1  0  0  0  0
  3  4  2  0  0  0  0
  3 38  1  0  0  0  0
  4  5  1  0  0  0  0
  5  6  2  0  0  0  0
  6  7  1  0  0  0  0
  6 37  1  0  0  0  0
  7  8  1  0  0  0  0
  8  9  1  0  0  0  0
  8 10  1  0  0  0  0
 10 11  1  0  0  0  0
 11 12  1  0  0  0  0
 12 13  1  0  0  0  0
 13 14  2  0  0  0  0
 13 36  1  0  0  0  0
 14 15  1  0  0  0  0
 15 16  2  0  0  0  0
 16 17  1  0  0  0  0
 16 35  1  0  0  0  0
 17 18  1  0  0  0  0
 18 19  2  0  0  0  0
 18 20  1  0  0  0  0
 20 21  2  0  0  0  0
 20 34  1  0  0  0  0
 21 22  1  0  0  0  0
 22 23  2  0  0  0  0
 23 24  1  0  0  0  0
 24 25  1  0  0  0  0
 24 34  2  0  0  0  0
 25 26  2  0  0  0  0
 25 27  1  0  0  0  0
 27 28  2  0  0  0  0
 27 32  1  0  0  0  0
 28 29  1  0  0  0  0
 29 30  2  0  0  0  0
 30 31  1  0  0  0  0
 31 32  2  0  0  0  0
 32 33  1  0  0  0  0
 33 34  1  0  0  0  0
 35 36  2  0  0  0  0
 37 38  2  0  0  0  0
 38 39  1  0  0  0  0
 39 40  1  0  0  0  0
M  END
$$$$

 OpenBabel12191814062D

 42 46  0  0  0  0  0  0  0  0999 V2000
   -5.0013    8.6625    0.0000 C   0  0  0  0  0  0  0  0  0  0  0  0
   -4.2868    8.2500    0.0000 O   0  0  0  0  0  0  0  0  0  0  0  0
   -4.2868    7.4250    0.0000 C   0  0  0  0  0  0  0  0  0  0  0  0
   -3.5724    7.0125    0.0000 C   0  0  0  0  0  0  0  0  0  0  0  0
   -3.5724    6.1875    0.0000 C   0  0  0  0  0  0  0  0  0  0  0  0
   -4.2868    5.7750    0.0000 C   0  0  0  0  0  0  0  0  0  0  0  0
   -4.2868    4.9500    0.0000 C   0  0  0  0  0  0  0  0  0  0  0  0
   -3.5724    4.5375    0.0000 N   0  0  0  0  0  0  0  0  0  0  0  0
   -2.8579    4.9500    0.0000 C   0  0  0  0  0  0  0  0  0  0  0  0
   -3.5724    3.7125    0.0000 C   0  0  0  0  0  0  0  0  0  0  0  0
   -2.8579    3.3000    0.0000 C   0  0  0  0  0  0  0  0  0  0  0  0
   -2.8579    2.4750    0.0000 C   0  0  0  0  0  0  0  0  0  0  0  0
   -2.1434    2.0625    0.0000 C   0  0  0  0  0  0  0  0  0  0  0  0
   -1.4289    2.4750    0.0000 C   0  0  0  0  0  0  0  0  0  0  0  0
   -0.7145    2.0625    0.0000 C   0  0  0  0  0  0  0  0  0  0  0  0
   -0.7145    1.2375    0.0000 C   0  0  0  0  0  0  0  0  0  0  0  0
   -1.4289    0.8250    0.0000 C   0  0  0  0  0  0  0  0  0  0  0  0
   -1.4289   -0.0000    0.0000 N   0  0  0  0  0  0  0  0  0  0  0  0
   -0.7145   -0.4125    0.0000 C   0  0  0  0  0  0  0  0  0  0  0  0
    0.0000   -0.0000    0.0000 O   0  0  0  0  0  0  0  0  0  0  0  0
   -0.7145   -1.2375    0.0000 C   0  0  0  0  0  0  0  0  0  0  0  0
   -1.4289   -1.6500    0.0000 C   0  0  0  0  0  0  0  0  0  0  0  0
   -1.4289   -2.4750    0.0000 C   0  0  0  0  0  0  0  0  0  0  0  0
   -0.7145   -2.8875    0.0000 C   0  0  0  0  0  0  0  0  0  0  0  0
    0.0000   -2.4750    0.0000 C   0  0  0  0  0  0  0  0  0  0  0  0
    0.7145   -2.8875    0.0000 C   0  0  0  0  0  0  0  0  0  0  0  0
    0.7145   -3.7125    0.0000 O   0  0  0  0  0  0  0  0  0  0  0  0
    1.4289   -2.4750    0.0000 C   0  0  0  0  0  0  0  0  0  0  0  0
    1.4289   -1.6500    0.0000 C   0  0  0  0  0  0  0  0  0  0  0  0
    0.7145   -1.2375    0.0000 N   0  0  0  0  0  0  0  0  0  0  0  0
    0.0000   -1.6500    0.0000 C   0  0  0  0  0  0  0  0  0  0  0  0
    2.1434   -1.2375    0.0000 C   0  0  0  0  0  0  0  0  0  0  0  0
    2.8579   -1.6500    0.0000 C   0  0  0  0  0  0  0  0  0  0  0  0
    2.8579   -2.4750    0.0000 C   0  0  0  0  0  0  0  0  0  0  0  0
    2.1434   -2.8875    0.0000 C   0  0  0  0  0  0  0  0  0  0  0  0
    2.1434   -3.7125    0.0000 O   0  0  0  0  0  0  0  0  0  0  0  0
    2.8579   -4.1250    0.0000 C   0  0  0  0  0  0  0  0  0  0  0  0
   -2.1434    1.2375    0.0000 C   0  0  0  0  0  0  0  0  0  0  0  0
   -5.0013    6.1875    0.0000 C   0  0  0  0  0  0  0  0  0  0  0  0
   -5.0013    7.0125    0.0000 C   0  0  0  0  0  0  0  0  0  0  0  0
   -5.7158    7.4250    0.0000 O   0  0  0  0  0  0  0  0  0  0  0  0
   -5.7158    8.2500    0.0000 C   0  0  0  0  0  0  0  0  0  0  0  0
  1  2  1  0  0  0  0
  2  3  1  0  0  0  0
  3  4  2  0  0  0  0
  3 40  1  0  0  0  0
  4  5  1  0  0  0  0
  5  6  2  0  0  0  0
  6  7  1  0  0  0  0
  6 39  1  0  0  0  0
  7  8  1  0  0  0  0
  8  9  1  0  0  0  0
  8 10  1  0  0  0  0
 10 11  1  0  0  0  0
 11 12  1  0  0  0  0
 12 13  1  0  0  0  0
 13 14  2  0  0  0  0
 13 38  1  0  0  0  0
 14 15  1  0  0  0  0
 15 16  2  0  0  0  0
 16 17  1  0  0  0  0
 17 18  1  0  0  0  0
 17 38  2  0  0  0  0
 18 19  1  0  0  0  0
 19 20  2  0  0  0  0
 19 21  1  0  0  0  0
 21 22  2  0  0  0  0
 21 31  1  0  0  0  0
 22 23  1  0  0  0  0
 23 24  2  0  0  0  0
 24 25  1  0  0  0  0
 25 26  1  0  0  0  0
 25 31  2  0  0  0  0
 26 27  2  0  0  0  0
 26 28  1  0  0  0  0
 28 29  2  0  0  0  0
 28 35  1  0  0  0  0
 29 30  1  0  0  0  0
 29 32  1  0  0  0  0
 30 31  1  0  0  0  0
 32 33  2  0  0  0  0
 33 34  1  0  0  0  0
 34 35  2  0  0  0  0
 35 36  1  0  0  0  0
 36 37  1  0  0  0  0
 39 40  2  0  0  0  0
 40 41  1  0  0  0  0
 41 42  1  0  0  0  0
M  END
$$$$

 OpenBabel12191814062D

 42 46  0  0  0  0  0  0  0  0999 V2000
    1.4289   -6.6000    0.0000 C   0  0  0  0  0  0  0  0  0  0  0  0
    2.1434   -6.1875    0.0000 O   0  0  0  0  0  0  0  0  0  0  0  0
    2.8579   -6.6000    0.0000 C   0  0  0  0  0  0  0  0  0  0  0  0
    3.5724   -6.1875    0.0000 C   0  0  0  0  0  0  0  0  0  0  0  0
    4.2868   -6.6000    0.0000 C   0  0  0  0  0  0  0  0  0  0  0  0
    4.2868   -7.4250    0.0000 C   0  0  0  0  0  0  0  0  0  0  0  0
    5.0013   -7.8375    0.0000 C   0  0  0  0  0  0  0  0  0  0  0  0
    5.7158   -7.4250    0.0000 N   0  0  0  0  0  0  0  0  0  0  0  0
    5.7158   -6.6000    0.0000 C   0  0  0  0  0  0  0  0  0  0  0  0
    6.4302   -7.8375    0.0000 C   0  0  0  0  0  0  0  0  0  0  0  0
    7.1447   -7.4250    0.0000 C   0  0  0  0  0  0  0  0  0  0  0  0
    7.8592   -7.8375    0.0000 C   0  0  0  0  0  0  0  0  0  0  0  0
    8.5737   -7.4250    0.0000 C   0  0  0  0  0  0  0  0  0  0  0  0
    9.2881   -7.8375    0.0000 C   0  0  0  0  0  0  0  0  0  0  0  0
   10.0026   -7.4250    0.0000 C   0  0  0  0  0  0  0  0  0  0  0  0
   10.7171   -7.8375    0.0000 C   0  0  0  0  0  0  0  0  0  0  0  0
   10.7171   -8.6625    0.0000 C   0  0  0  0  0  0  0  0  0  0  0  0
   11.4315   -9.0750    0.0000 N   0  0  0  0  0  0  0  0  0  0  0  0
   12.1460   -8.6625    0.0000 C   0  0  0  0  0  0  0  0  0  0  0  0
   12.8605   -9.0750    0.0000 O   0  0  0  0  0  0  0  0  0  0  0  0
   12.1460   -7.8375    0.0000 C   0  0  0  0  0  0  0  0  0  0  0  0
   11.4315   -7.4250    0.0000 C   0  0  0  0  0  0  0  0  0  0  0  0
   11.4315   -6.6000    0.0000 C   0  0  0  0  0  0  0  0  0  0  0  0
   12.1460   -6.1875    0.0000 C   0  0  0  0  0  0  0  0  0  0  0  0
   12.8605   -6.6000    0.0000 C   0  0  0  0  0  0  0  0  0  0  0  0
   13.5749   -6.1875    0.0000 C   0  0  0  0  0  0  0  0  0  0  0  0
   13.5749   -5.3625    0.0000 O   0  0  0  0  0  0  0  0  0  0  0  0
   14.2894   -6.6000    0.0000 C   0  0  0  0  0  0  0  0  0  0  0  0
   15.0039   -6.1875    0.0000 C   0  0  0  0  0  0  0  0  0  0  0  0
   15.7184   -6.6000    0.0000 C   0  0  0  0  0  0  0  0  0  0  0  0
   15.7184   -7.4250    0.0000 C   0  0  0  0  0  0  0  0  0  0  0  0
   15.0039   -7.8375    0.0000 C   0  0  0  0  0  0  0  0  0  0  0  0
   15.0039   -8.6625    0.0000 N   0  0  0  0  0  0  0  0  0  0  0  0
   14.2894   -7.4250    0.0000 C   0  0  0  0  0  0  0  0  0  0  0  0
   13.5749   -7.8375    0.0000 N   0  0  0  0  0  0  0  0  0  0  0  0
   12.8605   -7.4250    0.0000 C   0  0  0  0  0  0  0  0  0  0  0  0
   10.0026   -9.0750    0.0000 C   0  0  0  0  0  0  0  0  0  0  0  0
    9.2881   -8.6625    0.0000 C   0  0  0  0  0  0  0  0  0  0  0  0
    3.5724   -7.8375    0.0000 C   0  0  0  0  0  0  0  0  0  0  0  0
    2.8579   -7.4250    0.0000 C   0  0  0  0  0  0  0  0  0  0  0  0
    2.1434   -7.8375    0.0000 O   0  0  0  0  0  0  0  0  0  0  0  0
    1.4289   -7.4250    0.0000 C   0  0  0  0  0  0  0  0  0  0  0  0
  1  2  1  0  0  0  0
  2  3  1  0  0  0  0
  3  4  2  0  0  0  0
  3 40  1  0  0  0  0
  4  5  1  0  0  0  0
  5  6  2  0  0  0  0
  6  7  1  0  0  0  0
  6 39  1  0  0  0  0
  7  8  1  0  0  0  0
  8  9  1  0  0  0  0
  8 10  1  0  0  0  0
 10 11  1  0  0  0  0
 11 12  1  0  0  0  0
 12 13  1  0  0  0  0
 13 14  1  0  0  0  0
 14 15  2  0  0  0  0
 14 38  1  0  0  0  0
 15 16  1  0  0  0  0
 16 17  2  0  0  0  0
 17 18  1  0  0  0  0
 17 37  1  0  0  0  0
 18 19  1  0  0  0  0
 19 20  2  0  0  0  0
 19 21  1  0  0  0  0
 21 22  2  0  0  0  0
 21 36  1  0  0  0  0
 22 23  1  0  0  0  0
 23 24  2  0  0  0  0
 24 25  1  0  0  0  0
 25 26  1  0  0  0  0
 25 36  2  0  0  0  0
 26 27  2  0  0  0  0
 26 28  1  0  0  0  0
 28 29  2  0  0  0  0
 28 34  1  0  0  0  0
 29 30  1  0  0  0  0
 30 31  2  0  0  0  0
 31 32  1  0  0  0  0
 32 33  1  0  0  0  0
 32 34  2  0  0  0  0
 34 35  1  0  0  0  0
 35 36  1  0  0  0  0
 37 38  2  0  0  0  0
 39 40  2  0  0  0  0
 40 41  1  0  0  0  0
 41 42  1  0  0  0  0
M  END
$$$$

 OpenBabel12191814062D

 41 45  0  0  0  0  0  0  0  0999 V2000
    1.4289   -6.6000    0.0000 C   0  0  0  0  0  0  0  0  0  0  0  0
    2.1434   -6.1875    0.0000 O   0  0  0  0  0  0  0  0  0  0  0  0
    2.8579   -6.6000    0.0000 C   0  0  0  0  0  0  0  0  0  0  0  0
    3.5724   -6.1875    0.0000 C   0  0  0  0  0  0  0  0  0  0  0  0
    4.2868   -6.6000    0.0000 C   0  0  0  0  0  0  0  0  0  0  0  0
    4.2868   -7.4250    0.0000 C   0  0  0  0  0  0  0  0  0  0  0  0
    5.0013   -7.8375    0.0000 C   0  0  0  0  0  0  0  0  0  0  0  0
    5.7158   -7.4250    0.0000 N   0  0  0  0  0  0  0  0  0  0  0  0
    5.7158   -6.6000    0.0000 C   0  0  0  0  0  0  0  0  0  0  0  0
    6.4302   -7.8375    0.0000 C   0  0  0  0  0  0  0  0  0  0  0  0
    7.1447   -7.4250    0.0000 C   0  0  0  0  0  0  0  0  0  0  0  0
    7.8592   -7.8375    0.0000 C   0  0  0  0  0  0  0  0  0  0  0  0
    8.5737   -7.4250    0.0000 C   0  0  0  0  0  0  0  0  0  0  0  0
    9.2881   -7.8375    0.0000 C   0  0  0  0  0  0  0  0  0  0  0  0
   10.0026   -7.4250    0.0000 C   0  0  0  0  0  0  0  0  0  0  0  0
   10.7171   -7.8375    0.0000 C   0  0  0  0  0  0  0  0  0  0  0  0
   10.7171   -8.6625    0.0000 C   0  0  0  0  0  0  0  0  0  0  0  0
   11.4315   -9.0750    0.0000 N   0  0  0  0  0  0  0  0  0  0  0  0
   12.1460   -8.6625    0.0000 C   0  0  0  0  0  0  0  0  0  0  0  0
   12.8605   -9.0750    0.0000 O   0  0  0  0  0  0  0  0  0  0  0  0
   12.1460   -7.8375    0.0000 C   0  0  0  0  0  0  0  0  0  0  0  0
   11.4315   -7.4250    0.0000 C   0  0  0  0  0  0  0  0  0  0  0  0
   11.4315   -6.6000    0.0000 C   0  0  0  0  0  0  0  0  0  0  0  0
   12.1460   -6.1875    0.0000 C   0  0  0  0  0  0  0  0  0  0  0  0
   12.8605   -6.6000    0.0000 C   0  0  0  0  0  0  0  0  0  0  0  0
   13.5749   -6.1875    0.0000 C   0  0  0  0  0  0  0  0  0  0  0  0
   13.5749   -5.3625    0.0000 O   0  0  0  0  0  0  0  0  0  0  0  0
   14.2894   -6.6000    0.0000 C   0  0  0  0  0  0  0  0  0  0  0  0
   15.0039   -6.1875    0.0000 C   0  0  0  0  0  0  0  0  0  0  0  0
   15.7184   -6.6000    0.0000 C   0  0  0  0  0  0  0  0  0  0  0  0
   15.7184   -7.4250    0.0000 C   0  0  0  0  0  0  0  0  0  0  0  0
   15.0039   -7.8375    0.0000 C   0  0  0  0  0  0  0  0  0  0  0  0
   14.2894   -7.4250    0.0000 C   0  0  0  0  0  0  0  0  0  0  0  0
   13.5749   -7.8375    0.0000 N   0  0  0  0  0  0  0  0  0  0  0  0
   12.8605   -7.4250    0.0000 C   0  0  0  0  0  0  0  0  0  0  0  0
   10.0026   -9.0750    0.0000 C   0  0  0  0  0  0  0  0  0  0  0  0
    9.2881   -8.6625    0.0000 C   0  0  0  0  0  0  0  0  0  0  0  0
    3.5724   -7.8375    0.0000 C   0  0  0  0  0  0  0  0  0  0  0  0
    2.8579   -7.4250    0.0000 C   0  0  0  0  0  0  0  0  0  0  0  0
    2.1434   -7.8375    0.0000 O   0  0  0  0  0  0  0  0  0  0  0  0
    1.4289   -7.4250    0.0000 C   0  0  0  0  0  0  0  0  0  0  0  0
  1  2  1  0  0  0  0
  2  3  1  0  0  0  0
  3  4  2  0  0  0  0
  3 39  1  0  0  0  0
  4  5  1  0  0  0  0
  5  6  2  0  0  0  0
  6  7  1  0  0  0  0
  6 38  1  0  0  0  0
  7  8  1  0  0  0  0
  8  9  1  0  0  0  0
  8 10  1  0  0  0  0
 10 11  1  0  0  0  0
 11 12  1  0  0  0  0
 12 13  1  0  0  0  0
 13 14  1  0  0  0  0
 14 15  2  0  0  0  0
 14 37  1  0  0  0  0
 15 16  1  0  0  0  0
 16 17  2  0  0  0  0
 17 18  1  0  0  0  0
 17 36  1  0  0  0  0
 18 19  1  0  0  0  0
 19 20  2  0  0  0  0
 19 21  1  0  0  0  0
 21 22  2  0  0  0  0
 21 35  1  0  0  0  0
 22 23  1  0  0  0  0
 23 24  2  0  0  0  0
 24 25  1  0  0  0  0
 25 26  1  0  0  0  0
 25 35  2  0  0  0  0
 26 27  2  0  0  0  0
 26 28  1  0  0  0  0
 28 29  2  0  0  0  0
 28 33  1  0  0  0  0
 29 30  1  0  0  0  0
 30 31  2  0  0  0  0
 31 32  1  0  0  0  0
 32 33  2  0  0  0  0
 33 34  1  0  0  0  0
 34 35  1  0  0  0  0
 36 37  2  0  0  0  0
 38 39  2  0  0  0  0
 39 40  1  0  0  0  0
 40 41  1  0  0  0  0
M  END
$$$$

 OpenBabel12191814062D

 42 46  0  0  0  0  0  0  0  0999 V2000
    2.8579   -9.9000    0.0000 C   0  0  0  0  0  0  0  0  0  0  0  0
    3.5724  -10.3125    0.0000 O   0  0  0  0  0  0  0  0  0  0  0  0
    4.2868   -9.9000    0.0000 C   0  0  0  0  0  0  0  0  0  0  0  0
    4.2868   -9.0750    0.0000 C   0  0  0  0  0  0  0  0  0  0  0  0
    5.0013   -8.6625    0.0000 C   0  0  0  0  0  0  0  0  0  0  0  0
    5.7158   -9.0750    0.0000 C   0  0  0  0  0  0  0  0  0  0  0  0
    6.4302   -8.6625    0.0000 C   0  0  0  0  0  0  0  0  0  0  0  0
    7.1447   -9.0750    0.0000 N   0  0  0  0  0  0  0  0  0  0  0  0
    7.1447   -9.9000    0.0000 C   0  0  0  0  0  0  0  0  0  0  0  0
    7.8592   -8.6625    0.0000 C   0  0  0  0  0  0  0  0  0  0  0  0
    8.5737   -9.0750    0.0000 C   0  0  0  0  0  0  0  0  0  0  0  0
    9.2881   -8.6625    0.0000 C   0  0  0  0  0  0  0  0  0  0  0  0
   10.0026   -9.0750    0.0000 C   0  0  0  0  0  0  0  0  0  0  0  0
   10.7171   -8.6625    0.0000 C   0  0  0  0  0  0  0  0  0  0  0  0
   11.4315   -9.0750    0.0000 C   0  0  0  0  0  0  0  0  0  0  0  0
   12.1460   -8.6625    0.0000 C   0  0  0  0  0  0  0  0  0  0  0  0
   12.8605   -9.0750    0.0000 C   0  0  0  0  0  0  0  0  0  0  0  0
   12.8605   -9.9000    0.0000 C   0  0  0  0  0  0  0  0  0  0  0  0
   13.5749  -10.3125    0.0000 N   0  0  0  0  0  0  0  0  0  0  0  0
   14.2894   -9.9000    0.0000 C   0  0  0  0  0  0  0  0  0  0  0  0
   15.0039  -10.3125    0.0000 O   0  0  0  0  0  0  0  0  0  0  0  0
   14.2894   -9.0750    0.0000 C   0  0  0  0  0  0  0  0  0  0  0  0
   13.5749   -8.6625    0.0000 C   0  0  0  0  0  0  0  0  0  0  0  0
   13.5749   -7.8375    0.0000 C   0  0  0  0  0  0  0  0  0  0  0  0
   14.2894   -7.4250    0.0000 C   0  0  0  0  0  0  0  0  0  0  0  0
   15.0039   -7.8375    0.0000 C   0  0  0  0  0  0  0  0  0  0  0  0
   15.7184   -7.4250    0.0000 C   0  0  0  0  0  0  0  0  0  0  0  0
   15.7184   -6.6000    0.0000 O   0  0  0  0  0  0  0  0  0  0  0  0
   16.4328   -7.8375    0.0000 C   0  0  0  0  0  0  0  0  0  0  0  0
   17.1473   -7.4250    0.0000 C   0  0  0  0  0  0  0  0  0  0  0  0
   17.8618   -7.8375    0.0000 C   0  0  0  0  0  0  0  0  0  0  0  0
   17.8618   -8.6625    0.0000 C   0  0  0  0  0  0  0  0  0  0  0  0
   17.1473   -9.0750    0.0000 C   0  0  0  0  0  0  0  0  0  0  0  0
   16.4328   -8.6625    0.0000 C   0  0  0  0  0  0  0  0  0  0  0  0
   15.7184   -9.0750    0.0000 N   0  0  0  0  0  0  0  0  0  0  0  0
   15.0039   -8.6625    0.0000 C   0  0  0  0  0  0  0  0  0  0  0  0
   12.1460  -10.3125    0.0000 C   0  0  0  0  0  0  0  0  0  0  0  0
   11.4315   -9.9000    0.0000 C   0  0  0  0  0  0  0  0  0  0  0  0
    5.7158   -9.9000    0.0000 C   0  0  0  0  0  0  0  0  0  0  0  0
    5.0013  -10.3125    0.0000 C   0  0  0  0  0  0  0  0  0  0  0  0
    5.0013  -11.1375    0.0000 O   0  0  0  0  0  0  0  0  0  0  0  0
    4.2868  -11.5500    0.0000 C   0  0  0  0  0  0  0  0  0  0  0  0
  1  2  1  0  0  0  0
  2  3  1  0  0  0  0
  3  4  2  0  0  0  0
  3 40  1  0  0  0  0
  4  5  1  0  0  0  0
  5  6  2  0  0  0  0
  6  7  1  0  0  0  0
  6 39  1  0  0  0  0
  7  8  1  0  0  0  0
  8  9  1  0  0  0  0
  8 10  1  0  0  0  0
 10 11  1  0  0  0  0
 11 12  1  0  0  0  0
 12 13  1  0  0  0  0
 13 14  1  0  0  0  0
 14 15  1  0  0  0  0
 15 16  2  0  0  0  0
 15 38  1  0  0  0  0
 16 17  1  0  0  0  0
 17 18  2  0  0  0  0
 18 19  1  0  0  0  0
 18 37  1  0  0  0  0
 19 20  1  0  0  0  0
 20 21  2  0  0  0  0
 20 22  1  0  0  0  0
 22 23  2  0  0  0  0
 22 36  1  0  0  0  0
 23 24  1  0  0  0  0
 24 25  2  0  0  0  0
 25 26  1  0  0  0  0
 26 27  1  0  0  0  0
 26 36  2  0  0  0  0
 27 28  2  0  0  0  0
 27 29  1  0  0  0  0
 29 30  2  0  0  0  0
 29 34  1  0  0  0  0
 30 31  1  0  0  0  0
 31 32  2  0  0  0  0
 32 33  1  0  0  0  0
 33 34  2  0  0  0  0
 34 35  1  0  0  0  0
 35 36  1  0  0  0  0
 37 38  2  0  0  0  0
 39 40  2  0  0  0  0
 40 41  1  0  0  0  0
 41 42  1  0  0  0  0
M  END
$$$$

 OpenBabel12191814062D

 43 47  0  0  0  0  0  0  0  0999 V2000
    1.4289   -6.6000    0.0000 C   0  0  0  0  0  0  0  0  0  0  0  0
    2.1434   -6.1875    0.0000 O   0  0  0  0  0  0  0  0  0  0  0  0
    2.8579   -6.6000    0.0000 C   0  0  0  0  0  0  0  0  0  0  0  0
    3.5724   -6.1875    0.0000 C   0  0  0  0  0  0  0  0  0  0  0  0
    4.2868   -6.6000    0.0000 C   0  0  0  0  0  0  0  0  0  0  0  0
    4.2868   -7.4250    0.0000 C   0  0  0  0  0  0  0  0  0  0  0  0
    5.0013   -7.8375    0.0000 C   0  0  0  0  0  0  0  0  0  0  0  0
    5.7158   -7.4250    0.0000 N   0  0  0  0  0  0  0  0  0  0  0  0
    5.7158   -6.6000    0.0000 C   0  0  0  0  0  0  0  0  0  0  0  0
    6.4302   -7.8375    0.0000 C   0  0  0  0  0  0  0  0  0  0  0  0
    7.1447   -7.4250    0.0000 C   0  0  0  0  0  0  0  0  0  0  0  0
    7.8592   -7.8375    0.0000 C   0  0  0  0  0  0  0  0  0  0  0  0
    8.5737   -7.4250    0.0000 O   0  0  0  0  0  0  0  0  0  0  0  0
    9.2881   -7.8375    0.0000 C   0  0  0  0  0  0  0  0  0  0  0  0
   10.0026   -7.4250    0.0000 C   0  0  0  0  0  0  0  0  0  0  0  0
   10.7171   -7.8375    0.0000 C   0  0  0  0  0  0  0  0  0  0  0  0
   10.7171   -8.6625    0.0000 C   0  0  0  0  0  0  0  0  0  0  0  0
   11.4315   -9.0750    0.0000 N   0  0  0  0  0  0  0  0  0  0  0  0
   12.1460   -8.6625    0.0000 C   0  0  0  0  0  0  0  0  0  0  0  0
   12.8605   -9.0750    0.0000 O   0  0  0  0  0  0  0  0  0  0  0  0
   12.1460   -7.8375    0.0000 C   0  0  0  0  0  0  0  0  0  0  0  0
   11.4315   -7.4250    0.0000 C   0  0  0  0  0  0  0  0  0  0  0  0
   11.4315   -6.6000    0.0000 C   0  0  0  0  0  0  0  0  0  0  0  0
   12.1460   -6.1875    0.0000 C   0  0  0  0  0  0  0  0  0  0  0  0
   12.8605   -6.6000    0.0000 C   0  0  0  0  0  0  0  0  0  0  0  0
   13.5749   -6.1875    0.0000 C   0  0  0  0  0  0  0  0  0  0  0  0
   13.5749   -5.3625    0.0000 O   0  0  0  0  0  0  0  0  0  0  0  0
   14.2894   -6.6000    0.0000 C   0  0  0  0  0  0  0  0  0  0  0  0
   15.0039   -6.1875    0.0000 C   0  0  0  0  0  0  0  0  0  0  0  0
   15.0039   -5.3625    0.0000 C   0  0  0  0  0  0  0  0  0  0  0  0
   15.7184   -6.6000    0.0000 C   0  0  0  0  0  0  0  0  0  0  0  0
   15.7184   -7.4250    0.0000 C   0  0  0  0  0  0  0  0  0  0  0  0
   15.0039   -7.8375    0.0000 C   0  0  0  0  0  0  0  0  0  0  0  0
   14.2894   -7.4250    0.0000 C   0  0  0  0  0  0  0  0  0  0  0  0
   13.5749   -7.8375    0.0000 N   0  0  0  0  0  0  0  0  0  0  0  0
   12.8605   -7.4250    0.0000 C   0  0  0  0  0  0  0  0  0  0  0  0
   10.0026   -9.0750    0.0000 C   0  0  0  0  0  0  0  0  0  0  0  0
   10.0026   -9.9000    0.0000 C   0  0  0  0  0  0  0  0  0  0  0  0
    9.2881   -8.6625    0.0000 C   0  0  0  0  0  0  0  0  0  0  0  0
    3.5724   -7.8375    0.0000 C   0  0  0  0  0  0  0  0  0  0  0  0
    2.8579   -7.4250    0.0000 C   0  0  0  0  0  0  0  0  0  0  0  0
    2.1434   -7.8375    0.0000 O   0  0  0  0  0  0  0  0  0  0  0  0
    1.4289   -7.4250    0.0000 C   0  0  0  0  0  0  0  0  0  0  0  0
  1  2  1  0  0  0  0
  2  3  1  0  0  0  0
  3  4  2  0  0  0  0
  3 41  1  0  0  0  0
  4  5  1  0  0  0  0
  5  6  2  0  0  0  0
  6  7  1  0  0  0  0
  6 40  1  0  0  0  0
  7  8  1  0  0  0  0
  8  9  1  0  0  0  0
  8 10  1  0  0  0  0
 10 11  1  0  0  0  0
 11 12  1  0  0  0  0
 12 13  1  0  0  0  0
 13 14  1  0  0  0  0
 14 15  2  0  0  0  0
 14 39  1  0  0  0  0
 15 16  1  0  0  0  0
 16 17  2  0  0  0  0
 17 18  1  0  0  0  0
 17 37  1  0  0  0  0
 18 19  1  0  0  0  0
 19 20  2  0  0  0  0
 19 21  1  0  0  0  0
 21 22  2  0  0  0  0
 21 36  1  0  0  0  0
 22 23  1  0  0  0  0
 23 24  2  0  0  0  0
 24 25  1  0  0  0  0
 25 26  1  0  0  0  0
 25 36  2  0  0  0  0
 26 27  2  0  0  0  0
 26 28  1  0  0  0  0
 28 29  2  0  0  0  0
 28 34  1  0  0  0  0
 29 30  1  0  0  0  0
 29 31  1  0  0  0  0
 31 32  2  0  0  0  0
 32 33  1  0  0  0  0
 33 34  2  0  0  0  0
 34 35  1  0  0  0  0
 35 36  1  0  0  0  0
 37 38  1  0  0  0  0
 37 39  2  0  0  0  0
 40 41  2  0  0  0  0
 41 42  1  0  0  0  0
 42 43  1  0  0  0  0
M  END
$$$$

 OpenBabel12191814062D

 44 48  0  0  0  0  0  0  0  0999 V2000
    1.4289   -6.6000    0.0000 C   0  0  0  0  0  0  0  0  0  0  0  0
    2.1434   -6.1875    0.0000 O   0  0  0  0  0  0  0  0  0  0  0  0
    2.8579   -6.6000    0.0000 C   0  0  0  0  0  0  0  0  0  0  0  0
    3.5724   -6.1875    0.0000 C   0  0  0  0  0  0  0  0  0  0  0  0
    4.2868   -6.6000    0.0000 C   0  0  0  0  0  0  0  0  0  0  0  0
    4.2868   -7.4250    0.0000 C   0  0  0  0  0  0  0  0  0  0  0  0
    5.0013   -7.8375    0.0000 C   0  0  0  0  0  0  0  0  0  0  0  0
    5.7158   -7.4250    0.0000 N   0  0  0  0  0  0  0  0  0  0  0  0
    5.7158   -6.6000    0.0000 C   0  0  0  0  0  0  0  0  0  0  0  0
    6.4302   -7.8375    0.0000 C   0  0  0  0  0  0  0  0  0  0  0  0
    7.1447   -7.4250    0.0000 C   0  0  0  0  0  0  0  0  0  0  0  0
    7.8592   -7.8375    0.0000 C   0  0  0  0  0  0  0  0  0  0  0  0
    8.5737   -7.4250    0.0000 O   0  0  0  0  0  0  0  0  0  0  0  0
    9.2881   -7.8375    0.0000 C   0  0  0  0  0  0  0  0  0  0  0  0
   10.0026   -7.4250    0.0000 C   0  0  0  0  0  0  0  0  0  0  0  0
   10.7171   -7.8375    0.0000 C   0  0  0  0  0  0  0  0  0  0  0  0
   10.7171   -8.6625    0.0000 C   0  0  0  0  0  0  0  0  0  0  0  0
   11.4315   -9.0750    0.0000 N   0  0  0  0  0  0  0  0  0  0  0  0
   12.1460   -8.6625    0.0000 C   0  0  0  0  0  0  0  0  0  0  0  0
   12.8605   -9.0750    0.0000 O   0  0  0  0  0  0  0  0  0  0  0  0
   12.1460   -7.8375    0.0000 C   0  0  0  0  0  0  0  0  0  0  0  0
   11.4315   -7.4250    0.0000 C   0  0  0  0  0  0  0  0  0  0  0  0
   11.4315   -6.6000    0.0000 C   0  0  0  0  0  0  0  0  0  0  0  0
   12.1460   -6.1875    0.0000 C   0  0  0  0  0  0  0  0  0  0  0  0
   12.8605   -6.6000    0.0000 C   0  0  0  0  0  0  0  0  0  0  0  0
   13.5749   -6.1875    0.0000 C   0  0  0  0  0  0  0  0  0  0  0  0
   13.5749   -5.3625    0.0000 O   0  0  0  0  0  0  0  0  0  0  0  0
   14.2894   -6.6000    0.0000 C   0  0  0  0  0  0  0  0  0  0  0  0
   15.0039   -6.1875    0.0000 C   0  0  0  0  0  0  0  0  0  0  0  0
   15.0039   -5.3625    0.0000 C   0  0  0  0  0  0  0  0  0  0  0  0
   15.7184   -6.6000    0.0000 C   0  0  0  0  0  0  0  0  0  0  0  0
   15.7184   -7.4250    0.0000 C   0  0  0  0  0  0  0  0  0  0  0  0
   15.0039   -7.8375    0.0000 C   0  0  0  0  0  0  0  0  0  0  0  0
   14.2894   -7.4250    0.0000 C   0  0  0  0  0  0  0  0  0  0  0  0
   13.5749   -7.8375    0.0000 N   0  0  0  0  0  0  0  0  0  0  0  0
   12.8605   -7.4250    0.0000 C   0  0  0  0  0  0  0  0  0  0  0  0
   10.0026   -9.0750    0.0000 C   0  0  0  0  0  0  0  0  0  0  0  0
   10.0026   -9.9000    0.0000 O   0  0  0  0  0  0  0  0  0  0  0  0
    9.2881  -10.3125    0.0000 C   0  0  0  0  0  0  0  0  0  0  0  0
    9.2881   -8.6625    0.0000 C   0  0  0  0  0  0  0  0  0  0  0  0
    3.5724   -7.8375    0.0000 C   0  0  0  0  0  0  0  0  0  0  0  0
    2.8579   -7.4250    0.0000 C   0  0  0  0  0  0  0  0  0  0  0  0
    2.1434   -7.8375    0.0000 O   0  0  0  0  0  0  0  0  0  0  0  0
    1.4289   -7.4250    0.0000 C   0  0  0  0  0  0  0  0  0  0  0  0
  1  2  1  0  0  0  0
  2  3  1  0  0  0  0
  3  4  2  0  0  0  0
  3 42  1  0  0  0  0
  4  5  1  0  0  0  0
  5  6  2  0  0  0  0
  6  7  1  0  0  0  0
  6 41  1  0  0  0  0
  7  8  1  0  0  0  0
  8  9  1  0  0  0  0
  8 10  1  0  0  0  0
 10 11  1  0  0  0  0
 11 12  1  0  0  0  0
 12 13  1  0  0  0  0
 13 14  1  0  0  0  0
 14 15  2  0  0  0  0
 14 40  1  0  0  0  0
 15 16  1  0  0  0  0
 16 17  2  0  0  0  0
 17 18  1  0  0  0  0
 17 37  1  0  0  0  0
 18 19  1  0  0  0  0
 19 20  2  0  0  0  0
 19 21  1  0  0  0  0
 21 22  2  0  0  0  0
 21 36  1  0  0  0  0
 22 23  1  0  0  0  0
 23 24  2  0  0  0  0
 24 25  1  0  0  0  0
 25 26  1  0  0  0  0
 25 36  2  0  0  0  0
 26 27  2  0  0  0  0
 26 28  1  0  0  0  0
 28 29  2  0  0  0  0
 28 34  1  0  0  0  0
 29 30  1  0  0  0  0
 29 31  1  0  0  0  0
 31 32  2  0  0  0  0
 32 33  1  0  0  0  0
 33 34  2  0  0  0  0
 34 35  1  0  0  0  0
 35 36  1  0  0  0  0
 37 38  1  0  0  0  0
 37 40  2  0  0  0  0
 38 39  1  0  0  0  0
 41 42  2  0  0  0  0
 42 43  1  0  0  0  0
 43 44  1  0  0  0  0
M  END
$$$$

 OpenBabel12191814062D

 43 47  0  0  0  0  0  0  0  0999 V2000
    1.4289   -6.6000    0.0000 C   0  0  0  0  0  0  0  0  0  0  0  0
    2.1434   -6.1875    0.0000 O   0  0  0  0  0  0  0  0  0  0  0  0
    2.8579   -6.6000    0.0000 C   0  0  0  0  0  0  0  0  0  0  0  0
    3.5724   -6.1875    0.0000 C   0  0  0  0  0  0  0  0  0  0  0  0
    4.2868   -6.6000    0.0000 C   0  0  0  0  0  0  0  0  0  0  0  0
    4.2868   -7.4250    0.0000 C   0  0  0  0  0  0  0  0  0  0  0  0
    5.0013   -7.8375    0.0000 C   0  0  0  0  0  0  0  0  0  0  0  0
    5.7158   -7.4250    0.0000 N   0  0  0  0  0  0  0  0  0  0  0  0
    5.7158   -6.6000    0.0000 C   0  0  0  0  0  0  0  0  0  0  0  0
    6.4302   -7.8375    0.0000 C   0  0  0  0  0  0  0  0  0  0  0  0
    7.1447   -7.4250    0.0000 C   0  0  0  0  0  0  0  0  0  0  0  0
    7.8592   -7.8375    0.0000 C   0  0  0  0  0  0  0  0  0  0  0  0
    8.5737   -7.4250    0.0000 O   0  0  0  0  0  0  0  0  0  0  0  0
    9.2881   -7.8375    0.0000 C   0  0  0  0  0  0  0  0  0  0  0  0
   10.0026   -7.4250    0.0000 C   0  0  0  0  0  0  0  0  0  0  0  0
   10.7171   -7.8375    0.0000 C   0  0  0  0  0  0  0  0  0  0  0  0
   10.7171   -8.6625    0.0000 C   0  0  0  0  0  0  0  0  0  0  0  0
   11.4315   -9.0750    0.0000 N   0  0  0  0  0  0  0  0  0  0  0  0
   12.1460   -8.6625    0.0000 C   0  0  0  0  0  0  0  0  0  0  0  0
   12.8605   -9.0750    0.0000 O   0  0  0  0  0  0  0  0  0  0  0  0
   12.1460   -7.8375    0.0000 C   0  0  0  0  0  0  0  0  0  0  0  0
   11.4315   -7.4250    0.0000 C   0  0  0  0  0  0  0  0  0  0  0  0
   11.4315   -6.6000    0.0000 C   0  0  0  0  0  0  0  0  0  0  0  0
   12.1460   -6.1875    0.0000 C   0  0  0  0  0  0  0  0  0  0  0  0
   12.8605   -6.6000    0.0000 C   0  0  0  0  0  0  0  0  0  0  0  0
   13.5749   -6.1875    0.0000 C   0  0  0  0  0  0  0  0  0  0  0  0
   13.5749   -5.3625    0.0000 O   0  0  0  0  0  0  0  0  0  0  0  0
   14.2894   -6.6000    0.0000 C   0  0  0  0  0  0  0  0  0  0  0  0
   15.0039   -6.1875    0.0000 C   0  0  0  0  0  0  0  0  0  0  0  0
   15.0039   -5.3625    0.0000 F   0  0  0  0  0  0  0  0  0  0  0  0
   15.7184   -6.6000    0.0000 C   0  0  0  0  0  0  0  0  0  0  0  0
   15.7184   -7.4250    0.0000 C   0  0  0  0  0  0  0  0  0  0  0  0
   15.0039   -7.8375    0.0000 C   0  0  0  0  0  0  0  0  0  0  0  0
   14.2894   -7.4250    0.0000 C   0  0  0  0  0  0  0  0  0  0  0  0
   13.5749   -7.8375    0.0000 N   0  0  0  0  0  0  0  0  0  0  0  0
   12.8605   -7.4250    0.0000 C   0  0  0  0  0  0  0  0  0  0  0  0
   10.0026   -9.0750    0.0000 C   0  0  0  0  0  0  0  0  0  0  0  0
   10.0026   -9.9000    0.0000 C   0  0  0  0  0  0  0  0  0  0  0  0
    9.2881   -8.6625    0.0000 C   0  0  0  0  0  0  0  0  0  0  0  0
    3.5724   -7.8375    0.0000 C   0  0  0  0  0  0  0  0  0  0  0  0
    2.8579   -7.4250    0.0000 C   0  0  0  0  0  0  0  0  0  0  0  0
    2.1434   -7.8375    0.0000 O   0  0  0  0  0  0  0  0  0  0  0  0
    1.4289   -7.4250    0.0000 C   0  0  0  0  0  0  0  0  0  0  0  0
  1  2  1  0  0  0  0
  2  3  1  0  0  0  0
  3  4  2  0  0  0  0
  3 41  1  0  0  0  0
  4  5  1  0  0  0  0
  5  6  2  0  0  0  0
  6  7  1  0  0  0  0
  6 40  1  0  0  0  0
  7  8  1  0  0  0  0
  8  9  1  0  0  0  0
  8 10  1  0  0  0  0
 10 11  1  0  0  0  0
 11 12  1  0  0  0  0
 12 13  1  0  0  0  0
 13 14  1  0  0  0  0
 14 15  2  0  0  0  0
 14 39  1  0  0  0  0
 15 16  1  0  0  0  0
 16 17  2  0  0  0  0
 17 18  1  0  0  0  0
 17 37  1  0  0  0  0
 18 19  1  0  0  0  0
 19 20  2  0  0  0  0
 19 21  1  0  0  0  0
 21 22  2  0  0  0  0
 21 36  1  0  0  0  0
 22 23  1  0  0  0  0
 23 24  2  0  0  0  0
 24 25  1  0  0  0  0
 25 26  1  0  0  0  0
 25 36  2  0  0  0  0
 26 27  2  0  0  0  0
 26 28  1  0  0  0  0
 28 29  2  0  0  0  0
 28 34  1  0  0  0  0
 29 30  1  0  0  0  0
 29 31  1  0  0  0  0
 31 32  2  0  0  0  0
 32 33  1  0  0  0  0
 33 34  2  0  0  0  0
 34 35  1  0  0  0  0
 35 36  1  0  0  0  0
 37 38  1  0  0  0  0
 37 39  2  0  0  0  0
 40 41  2  0  0  0  0
 41 42  1  0  0  0  0
 42 43  1  0  0  0  0
M  END
$$$$

 OpenBabel12191814062D

 44 48  0  0  0  0  0  0  0  0999 V2000
    1.4289   -6.6000    0.0000 C   0  0  0  0  0  0  0  0  0  0  0  0
    2.1434   -6.1875    0.0000 O   0  0  0  0  0  0  0  0  0  0  0  0
    2.8579   -6.6000    0.0000 C   0  0  0  0  0  0  0  0  0  0  0  0
    3.5724   -6.1875    0.0000 C   0  0  0  0  0  0  0  0  0  0  0  0
    4.2868   -6.6000    0.0000 C   0  0  0  0  0  0  0  0  0  0  0  0
    4.2868   -7.4250    0.0000 C   0  0  0  0  0  0  0  0  0  0  0  0
    5.0013   -7.8375    0.0000 C   0  0  0  0  0  0  0  0  0  0  0  0
    5.7158   -7.4250    0.0000 N   0  0  0  0  0  0  0  0  0  0  0  0
    5.7158   -6.6000    0.0000 C   0  0  0  0  0  0  0  0  0  0  0  0
    6.4302   -7.8375    0.0000 C   0  0  0  0  0  0  0  0  0  0  0  0
    7.1447   -7.4250    0.0000 C   0  0  0  0  0  0  0  0  0  0  0  0
    7.8592   -7.8375    0.0000 C   0  0  0  0  0  0  0  0  0  0  0  0
    8.5737   -7.4250    0.0000 O   0  0  0  0  0  0  0  0  0  0  0  0
    9.2881   -7.8375    0.0000 C   0  0  0  0  0  0  0  0  0  0  0  0
   10.0026   -7.4250    0.0000 C   0  0  0  0  0  0  0  0  0  0  0  0
   10.7171   -7.8375    0.0000 C   0  0  0  0  0  0  0  0  0  0  0  0
   10.7171   -8.6625    0.0000 C   0  0  0  0  0  0  0  0  0  0  0  0
   11.4315   -9.0750    0.0000 N   0  0  0  0  0  0  0  0  0  0  0  0
   12.1460   -8.6625    0.0000 C   0  0  0  0  0  0  0  0  0  0  0  0
   12.8605   -9.0750    0.0000 O   0  0  0  0  0  0  0  0  0  0  0  0
   12.1460   -7.8375    0.0000 C   0  0  0  0  0  0  0  0  0  0  0  0
   11.4315   -7.4250    0.0000 C   0  0  0  0  0  0  0  0  0  0  0  0
   11.4315   -6.6000    0.0000 C   0  0  0  0  0  0  0  0  0  0  0  0
   12.1460   -6.1875    0.0000 C   0  0  0  0  0  0  0  0  0  0  0  0
   12.8605   -6.6000    0.0000 C   0  0  0  0  0  0  0  0  0  0  0  0
   13.5749   -6.1875    0.0000 C   0  0  0  0  0  0  0  0  0  0  0  0
   13.5749   -5.3625    0.0000 O   0  0  0  0  0  0  0  0  0  0  0  0
   14.2894   -6.6000    0.0000 C   0  0  0  0  0  0  0  0  0  0  0  0
   15.0039   -6.1875    0.0000 C   0  0  0  0  0  0  0  0  0  0  0  0
   15.0039   -5.3625    0.0000 F   0  0  0  0  0  0  0  0  0  0  0  0
   15.7184   -6.6000    0.0000 C   0  0  0  0  0  0  0  0  0  0  0  0
   15.7184   -7.4250    0.0000 C   0  0  0  0  0  0  0  0  0  0  0  0
   15.0039   -7.8375    0.0000 C   0  0  0  0  0  0  0  0  0  0  0  0
   14.2894   -7.4250    0.0000 C   0  0  0  0  0  0  0  0  0  0  0  0
   13.5749   -7.8375    0.0000 N   0  0  0  0  0  0  0  0  0  0  0  0
   12.8605   -7.4250    0.0000 C   0  0  0  0  0  0  0  0  0  0  0  0
   10.0026   -9.0750    0.0000 C   0  0  0  0  0  0  0  0  0  0  0  0
   10.0026   -9.9000    0.0000 O   0  0  0  0  0  0  0  0  0  0  0  0
    9.2881  -10.3125    0.0000 C   0  0  0  0  0  0  0  0  0  0  0  0
    9.2881   -8.6625    0.0000 C   0  0  0  0  0  0  0  0  0  0  0  0
    3.5724   -7.8375    0.0000 C   0  0  0  0  0  0  0  0  0  0  0  0
    2.8579   -7.4250    0.0000 C   0  0  0  0  0  0  0  0  0  0  0  0
    2.1434   -7.8375    0.0000 O   0  0  0  0  0  0  0  0  0  0  0  0
    1.4289   -7.4250    0.0000 C   0  0  0  0  0  0  0  0  0  0  0  0
  1  2  1  0  0  0  0
  2  3  1  0  0  0  0
  3  4  2  0  0  0  0
  3 42  1  0  0  0  0
  4  5  1  0  0  0  0
  5  6  2  0  0  0  0
  6  7  1  0  0  0  0
  6 41  1  0  0  0  0
  7  8  1  0  0  0  0
  8  9  1  0  0  0  0
  8 10  1  0  0  0  0
 10 11  1  0  0  0  0
 11 12  1  0  0  0  0
 12 13  1  0  0  0  0
 13 14  1  0  0  0  0
 14 15  2  0  0  0  0
 14 40  1  0  0  0  0
 15 16  1  0  0  0  0
 16 17  2  0  0  0  0
 17 18  1  0  0  0  0
 17 37  1  0  0  0  0
 18 19  1  0  0  0  0
 19 20  2  0  0  0  0
 19 21  1  0  0  0  0
 21 22  2  0  0  0  0
 21 36  1  0  0  0  0
 22 23  1  0  0  0  0
 23 24  2  0  0  0  0
 24 25  1  0  0  0  0
 25 26  1  0  0  0  0
 25 36  2  0  0  0  0
 26 27  2  0  0  0  0
 26 28  1  0  0  0  0
 28 29  2  0  0  0  0
 28 34  1  0  0  0  0
 29 30  1  0  0  0  0
 29 31  1  0  0  0  0
 31 32  2  0  0  0  0
 32 33  1  0  0  0  0
 33 34  2  0  0  0  0
 34 35  1  0  0  0  0
 35 36  1  0  0  0  0
 37 38  1  0  0  0  0
 37 40  2  0  0  0  0
 38 39  1  0  0  0  0
 41 42  2  0  0  0  0
 42 43  1  0  0  0  0
 43 44  1  0  0  0  0
M  END
$$$$

 OpenBabel12191814062D

 41 45  0  0  0  0  0  0  0  0999 V2000
    1.4289   -6.6000    0.0000 C   0  0  0  0  0  0  0  0  0  0  0  0
    2.1434   -6.1875    0.0000 O   0  0  0  0  0  0  0  0  0  0  0  0
    2.8579   -6.6000    0.0000 C   0  0  0  0  0  0  0  0  0  0  0  0
    3.5724   -6.1875    0.0000 C   0  0  0  0  0  0  0  0  0  0  0  0
    4.2868   -6.6000    0.0000 C   0  0  0  0  0  0  0  0  0  0  0  0
    4.2868   -7.4250    0.0000 C   0  0  0  0  0  0  0  0  0  0  0  0
    5.0013   -7.8375    0.0000 C   0  0  0  0  0  0  0  0  0  0  0  0
    5.7158   -7.4250    0.0000 N   0  0  0  0  0  0  0  0  0  0  0  0
    5.7158   -6.6000    0.0000 C   0  0  0  0  0  0  0  0  0  0  0  0
    6.4302   -7.8375    0.0000 C   0  0  0  0  0  0  0  0  0  0  0  0
    7.1447   -7.4250    0.0000 C   0  0  0  0  0  0  0  0  0  0  0  0
    7.8592   -7.8375    0.0000 C   0  0  0  0  0  0  0  0  0  0  0  0
    8.5737   -7.4250    0.0000 O   0  0  0  0  0  0  0  0  0  0  0  0
    9.2881   -7.8375    0.0000 C   0  0  0  0  0  0  0  0  0  0  0  0
   10.0026   -7.4250    0.0000 C   0  0  0  0  0  0  0  0  0  0  0  0
   10.7171   -7.8375    0.0000 C   0  0  0  0  0  0  0  0  0  0  0  0
   10.7171   -8.6625    0.0000 C   0  0  0  0  0  0  0  0  0  0  0  0
   11.4315   -9.0750    0.0000 N   0  0  0  0  0  0  0  0  0  0  0  0
   12.1460   -8.6625    0.0000 C   0  0  0  0  0  0  0  0  0  0  0  0
   12.8605   -9.0750    0.0000 O   0  0  0  0  0  0  0  0  0  0  0  0
   12.1460   -7.8375    0.0000 C   0  0  0  0  0  0  0  0  0  0  0  0
   11.4315   -7.4250    0.0000 C   0  0  0  0  0  0  0  0  0  0  0  0
   11.4315   -6.6000    0.0000 C   0  0  0  0  0  0  0  0  0  0  0  0
   12.1460   -6.1875    0.0000 C   0  0  0  0  0  0  0  0  0  0  0  0
   12.8605   -6.6000    0.0000 C   0  0  0  0  0  0  0  0  0  0  0  0
   13.5749   -6.1875    0.0000 C   0  0  0  0  0  0  0  0  0  0  0  0
   13.5749   -5.3625    0.0000 O   0  0  0  0  0  0  0  0  0  0  0  0
   14.2894   -6.6000    0.0000 C   0  0  0  0  0  0  0  0  0  0  0  0
   15.0039   -6.1875    0.0000 C   0  0  0  0  0  0  0  0  0  0  0  0
   15.7184   -6.6000    0.0000 C   0  0  0  0  0  0  0  0  0  0  0  0
   15.7184   -7.4250    0.0000 C   0  0  0  0  0  0  0  0  0  0  0  0
   15.0039   -7.8375    0.0000 C   0  0  0  0  0  0  0  0  0  0  0  0
   14.2894   -7.4250    0.0000 C   0  0  0  0  0  0  0  0  0  0  0  0
   13.5749   -7.8375    0.0000 N   0  0  0  0  0  0  0  0  0  0  0  0
   12.8605   -7.4250    0.0000 C   0  0  0  0  0  0  0  0  0  0  0  0
   10.0026   -9.0750    0.0000 C   0  0  0  0  0  0  0  0  0  0  0  0
    9.2881   -8.6625    0.0000 C   0  0  0  0  0  0  0  0  0  0  0  0
    3.5724   -7.8375    0.0000 C   0  0  0  0  0  0  0  0  0  0  0  0
    2.8579   -7.4250    0.0000 C   0  0  0  0  0  0  0  0  0  0  0  0
    2.1434   -7.8375    0.0000 O   0  0  0  0  0  0  0  0  0  0  0  0
    1.4289   -7.4250    0.0000 C   0  0  0  0  0  0  0  0  0  0  0  0
  1  2  1  0  0  0  0
  2  3  1  0  0  0  0
  3  4  2  0  0  0  0
  3 39  1  0  0  0  0
  4  5  1  0  0  0  0
  5  6  2  0  0  0  0
  6  7  1  0  0  0  0
  6 38  1  0  0  0  0
  7  8  1  0  0  0  0
  8  9  1  0  0  0  0
  8 10  1  0  0  0  0
 10 11  1  0  0  0  0
 11 12  1  0  0  0  0
 12 13  1  0  0  0  0
 13 14  1  0  0  0  0
 14 15  2  0  0  0  0
 14 37  1  0  0  0  0
 15 16  1  0  0  0  0
 16 17  2  0  0  0  0
 17 18  1  0  0  0  0
 17 36  1  0  0  0  0
 18 19  1  0  0  0  0
 19 20  2  0  0  0  0
 19 21  1  0  0  0  0
 21 22  2  0  0  0  0
 21 35  1  0  0  0  0
 22 23  1  0  0  0  0
 23 24  2  0  0  0  0
 24 25  1  0  0  0  0
 25 26  1  0  0  0  0
 25 35  2  0  0  0  0
 26 27  2  0  0  0  0
 26 28  1  0  0  0  0
 28 29  2  0  0  0  0
 28 33  1  0  0  0  0
 29 30  1  0  0  0  0
 30 31  2  0  0  0  0
 31 32  1  0  0  0  0
 32 33  2  0  0  0  0
 33 34  1  0  0  0  0
 34 35  1  0  0  0  0
 36 37  2  0  0  0  0
 38 39  2  0  0  0  0
 39 40  1  0  0  0  0
 40 41  1  0  0  0  0
M  END
$$$$

 OpenBabel12191814062D

 41 45  0  0  0  0  0  0  0  0999 V2000
    1.4289   -6.6000    0.0000 C   0  0  0  0  0  0  0  0  0  0  0  0
    2.1434   -6.1875    0.0000 O   0  0  0  0  0  0  0  0  0  0  0  0
    2.8579   -6.6000    0.0000 C   0  0  0  0  0  0  0  0  0  0  0  0
    3.5724   -6.1875    0.0000 C   0  0  0  0  0  0  0  0  0  0  0  0
    4.2868   -6.6000    0.0000 C   0  0  0  0  0  0  0  0  0  0  0  0
    4.2868   -7.4250    0.0000 C   0  0  0  0  0  0  0  0  0  0  0  0
    5.0013   -7.8375    0.0000 C   0  0  0  0  0  0  0  0  0  0  0  0
    5.7158   -7.4250    0.0000 N   0  0  0  0  0  0  0  0  0  0  0  0
    5.7158   -6.6000    0.0000 C   0  0  0  0  0  0  0  0  0  0  0  0
    6.4302   -7.8375    0.0000 C   0  0  0  0  0  0  0  0  0  0  0  0
    7.1447   -7.4250    0.0000 C   0  0  0  0  0  0  0  0  0  0  0  0
    7.8592   -7.8375    0.0000 C   0  0  0  0  0  0  0  0  0  0  0  0
    8.5737   -7.4250    0.0000 S   0  0  0  0  0  0  0  0  0  0  0  0
    9.2881   -7.8375    0.0000 C   0  0  0  0  0  0  0  0  0  0  0  0
   10.0026   -7.4250    0.0000 C   0  0  0  0  0  0  0  0  0  0  0  0
   10.7171   -7.8375    0.0000 C   0  0  0  0  0  0  0  0  0  0  0  0
   10.7171   -8.6625    0.0000 C   0  0  0  0  0  0  0  0  0  0  0  0
   11.4315   -9.0750    0.0000 N   0  0  0  0  0  0  0  0  0  0  0  0
   12.1460   -8.6625    0.0000 C   0  0  0  0  0  0  0  0  0  0  0  0
   12.8605   -9.0750    0.0000 O   0  0  0  0  0  0  0  0  0  0  0  0
   12.1460   -7.8375    0.0000 C   0  0  0  0  0  0  0  0  0  0  0  0
   11.4315   -7.4250    0.0000 C   0  0  0  0  0  0  0  0  0  0  0  0
   11.4315   -6.6000    0.0000 C   0  0  0  0  0  0  0  0  0  0  0  0
   12.1460   -6.1875    0.0000 C   0  0  0  0  0  0  0  0  0  0  0  0
   12.8605   -6.6000    0.0000 C   0  0  0  0  0  0  0  0  0  0  0  0
   13.5749   -6.1875    0.0000 C   0  0  0  0  0  0  0  0  0  0  0  0
   13.5749   -5.3625    0.0000 O   0  0  0  0  0  0  0  0  0  0  0  0
   14.2894   -6.6000    0.0000 C   0  0  0  0  0  0  0  0  0  0  0  0
   15.0039   -6.1875    0.0000 C   0  0  0  0  0  0  0  0  0  0  0  0
   15.7184   -6.6000    0.0000 C   0  0  0  0  0  0  0  0  0  0  0  0
   15.7184   -7.4250    0.0000 C   0  0  0  0  0  0  0  0  0  0  0  0
   15.0039   -7.8375    0.0000 C   0  0  0  0  0  0  0  0  0  0  0  0
   14.2894   -7.4250    0.0000 C   0  0  0  0  0  0  0  0  0  0  0  0
   13.5749   -7.8375    0.0000 N   0  0  0  0  0  0  0  0  0  0  0  0
   12.8605   -7.4250    0.0000 C   0  0  0  0  0  0  0  0  0  0  0  0
   10.0026   -9.0750    0.0000 C   0  0  0  0  0  0  0  0  0  0  0  0
    9.2881   -8.6625    0.0000 C   0  0  0  0  0  0  0  0  0  0  0  0
    3.5724   -7.8375    0.0000 C   0  0  0  0  0  0  0  0  0  0  0  0
    2.8579   -7.4250    0.0000 C   0  0  0  0  0  0  0  0  0  0  0  0
    2.1434   -7.8375    0.0000 O   0  0  0  0  0  0  0  0  0  0  0  0
    1.4289   -7.4250    0.0000 C   0  0  0  0  0  0  0  0  0  0  0  0
  1  2  1  0  0  0  0
  2  3  1  0  0  0  0
  3  4  2  0  0  0  0
  3 39  1  0  0  0  0
  4  5  1  0  0  0  0
  5  6  2  0  0  0  0
  6  7  1  0  0  0  0
  6 38  1  0  0  0  0
  7  8  1  0  0  0  0
  8  9  1  0  0  0  0
  8 10  1  0  0  0  0
 10 11  1  0  0  0  0
 11 12  1  0  0  0  0
 12 13  1  0  0  0  0
 13 14  1  0  0  0  0
 14 15  2  0  0  0  0
 14 37  1  0  0  0  0
 15 16  1  0  0  0  0
 16 17  2  0  0  0  0
 17 18  1  0  0  0  0
 17 36  1  0  0  0  0
 18 19  1  0  0  0  0
 19 20  2  0  0  0  0
 19 21  1  0  0  0  0
 21 22  2  0  0  0  0
 21 35  1  0  0  0  0
 22 23  1  0  0  0  0
 23 24  2  0  0  0  0
 24 25  1  0  0  0  0
 25 26  1  0  0  0  0
 25 35  2  0  0  0  0
 26 27  2  0  0  0  0
 26 28  1  0  0  0  0
 28 29  2  0  0  0  0
 28 33  1  0  0  0  0
 29 30  1  0  0  0  0
 30 31  2  0  0  0  0
 31 32  1  0  0  0  0
 32 33  2  0  0  0  0
 33 34  1  0  0  0  0
 34 35  1  0  0  0  0
 36 37  2  0  0  0  0
 38 39  2  0  0  0  0
 39 40  1  0  0  0  0
 40 41  1  0  0  0  0
M  END
$$$$

 OpenBabel12191814062D

 42 46  0  0  0  0  0  0  0  0999 V2000
   -7.8592   -3.7125    0.0000 C   0  0  0  0  0  0  0  0  0  0  0  0
   -7.8592   -2.8875    0.0000 O   0  0  0  0  0  0  0  0  0  0  0  0
   -7.1447   -2.4750    0.0000 C   0  0  0  0  0  0  0  0  0  0  0  0
   -7.1447   -1.6500    0.0000 C   0  0  0  0  0  0  0  0  0  0  0  0
   -6.4302   -1.2375    0.0000 C   0  0  0  0  0  0  0  0  0  0  0  0
   -5.7158   -1.6500    0.0000 C   0  0  0  0  0  0  0  0  0  0  0  0
   -5.0013   -1.2375    0.0000 C   0  0  0  0  0  0  0  0  0  0  0  0
   -4.2868   -1.6500    0.0000 N   0  0  0  0  0  0  0  0  0  0  0  0
   -4.2868   -2.4750    0.0000 C   0  0  0  0  0  0  0  0  0  0  0  0
   -3.5724   -1.2375    0.0000 C   0  0  0  0  0  0  0  0  0  0  0  0
   -2.8579   -1.6500    0.0000 C   0  0  0  0  0  0  0  0  0  0  0  0
   -2.1434   -1.2375    0.0000 O   0  0  0  0  0  0  0  0  0  0  0  0
   -1.4289   -1.6500    0.0000 C   0  0  0  0  0  0  0  0  0  0  0  0
   -0.7145   -1.2375    0.0000 C   0  0  0  0  0  0  0  0  0  0  0  0
    0.0000   -1.6500    0.0000 C   0  0  0  0  0  0  0  0  0  0  0  0
    0.0000   -2.4750    0.0000 C   0  0  0  0  0  0  0  0  0  0  0  0
    0.7145   -2.8875    0.0000 N   0  0  0  0  0  0  0  0  0  0  0  0
    1.4289   -2.4750    0.0000 C   0  0  0  0  0  0  0  0  0  0  0  0
    2.1434   -2.8875    0.0000 O   0  0  0  0  0  0  0  0  0  0  0  0
    1.4289   -1.6500    0.0000 C   0  0  0  0  0  0  0  0  0  0  0  0
    0.7145   -1.2375    0.0000 C   0  0  0  0  0  0  0  0  0  0  0  0
    0.7145   -0.4125    0.0000 C   0  0  0  0  0  0  0  0  0  0  0  0
    1.4289    0.0000    0.0000 C   0  0  0  0  0  0  0  0  0  0  0  0
    2.1434   -0.4125    0.0000 C   0  0  0  0  0  0  0  0  0  0  0  0
    2.8579    0.0000    0.0000 C   0  0  0  0  0  0  0  0  0  0  0  0
    2.8579    0.8250    0.0000 O   0  0  0  0  0  0  0  0  0  0  0  0
    3.5724   -0.4125    0.0000 C   0  0  0  0  0  0  0  0  0  0  0  0
    3.5724   -1.2375    0.0000 C   0  0  0  0  0  0  0  0  0  0  0  0
    2.8579   -1.6500    0.0000 N   0  0  0  0  0  0  0  0  0  0  0  0
    2.1434   -1.2375    0.0000 C   0  0  0  0  0  0  0  0  0  0  0  0
    4.2868   -1.6500    0.0000 C   0  0  0  0  0  0  0  0  0  0  0  0
    5.0013   -1.2375    0.0000 C   0  0  0  0  0  0  0  0  0  0  0  0
    5.7158   -1.6500    0.0000 C   0  0  0  0  0  0  0  0  0  0  0  0
    5.7158   -2.4750    0.0000 C   0  0  0  0  0  0  0  0  0  0  0  0
    5.0013   -2.8875    0.0000 C   0  0  0  0  0  0  0  0  0  0  0  0
    4.2868   -2.4750    0.0000 C   0  0  0  0  0  0  0  0  0  0  0  0
   -0.7145   -2.8875    0.0000 C   0  0  0  0  0  0  0  0  0  0  0  0
   -1.4289   -2.4750    0.0000 C   0  0  0  0  0  0  0  0  0  0  0  0
   -5.7158   -2.4750    0.0000 C   0  0  0  0  0  0  0  0  0  0  0  0
   -6.4302   -2.8875    0.0000 C   0  0  0  0  0  0  0  0  0  0  0  0
   -6.4302   -3.7125    0.0000 O   0  0  0  0  0  0  0  0  0  0  0  0
   -7.1447   -4.1250    0.0000 C   0  0  0  0  0  0  0  0  0  0  0  0
  1  2  1  0  0  0  0
  2  3  1  0  0  0  0
  3  4  2  0  0  0  0
  3 40  1  0  0  0  0
  4  5  1  0  0  0  0
  5  6  2  0  0  0  0
  6  7  1  0  0  0  0
  6 39  1  0  0  0  0
  7  8  1  0  0  0  0
  8  9  1  0  0  0  0
  8 10  1  0  0  0  0
 10 11  1  0  0  0  0
 11 12  1  0  0  0  0
 12 13  1  0  0  0  0
 13 14  2  0  0  0  0
 13 38  1  0  0  0  0
 14 15  1  0  0  0  0
 15 16  2  0  0  0  0
 16 17  1  0  0  0  0
 16 37  1  0  0  0  0
 17 18  1  0  0  0  0
 18 19  2  0  0  0  0
 18 20  1  0  0  0  0
 20 21  2  0  0  0  0
 20 30  1  0  0  0  0
 21 22  1  0  0  0  0
 22 23  2  0  0  0  0
 23 24  1  0  0  0  0
 24 25  1  0  0  0  0
 24 30  2  0  0  0  0
 25 26  2  0  0  0  0
 25 27  1  0  0  0  0
 27 28  2  0  0  0  0
 28 29  1  0  0  0  0
 28 31  1  0  0  0  0
 29 30  1  0  0  0  0
 31 32  2  0  0  0  0
 31 36  1  0  0  0  0
 32 33  1  0  0  0  0
 33 34  2  0  0  0  0
 34 35  1  0  0  0  0
 35 36  2  0  0  0  0
 37 38  2  0  0  0  0
 39 40  2  0  0  0  0
 40 41  1  0  0  0  0
 41 42  1  0  0  0  0
M  END
$$$$

 OpenBabel12191814062D

 43 47  0  0  0  0  0  0  0  0999 V2000
   -6.4302    7.0125    0.0000 C   0  0  0  0  0  0  0  0  0  0  0  0
   -5.7158    7.4250    0.0000 O   0  0  0  0  0  0  0  0  0  0  0  0
   -5.0013    7.0125    0.0000 C   0  0  0  0  0  0  0  0  0  0  0  0
   -4.2868    7.4250    0.0000 C   0  0  0  0  0  0  0  0  0  0  0  0
   -3.5724    7.0125    0.0000 C   0  0  0  0  0  0  0  0  0  0  0  0
   -3.5724    6.1875    0.0000 C   0  0  0  0  0  0  0  0  0  0  0  0
   -2.8579    5.7750    0.0000 C   0  0  0  0  0  0  0  0  0  0  0  0
   -2.8579    4.9500    0.0000 N   0  0  0  0  0  0  0  0  0  0  0  0
   -3.5724    4.5375    0.0000 C   0  0  0  0  0  0  0  0  0  0  0  0
   -2.1434    4.5375    0.0000 C   0  0  0  0  0  0  0  0  0  0  0  0
   -2.1434    3.7125    0.0000 C   0  0  0  0  0  0  0  0  0  0  0  0
   -1.4289    3.3000    0.0000 O   0  0  0  0  0  0  0  0  0  0  0  0
   -1.4289    2.4750    0.0000 C   0  0  0  0  0  0  0  0  0  0  0  0
   -0.7145    2.0625    0.0000 C   0  0  0  0  0  0  0  0  0  0  0  0
   -0.7145    1.2375    0.0000 C   0  0  0  0  0  0  0  0  0  0  0  0
   -1.4289    0.8250    0.0000 C   0  0  0  0  0  0  0  0  0  0  0  0
   -1.4289   -0.0000    0.0000 N   0  0  0  0  0  0  0  0  0  0  0  0
   -0.7145   -0.4125    0.0000 C   0  0  0  0  0  0  0  0  0  0  0  0
    0.0000   -0.0000    0.0000 O   0  0  0  0  0  0  0  0  0  0  0  0
   -0.7145   -1.2375    0.0000 C   0  0  0  0  0  0  0  0  0  0  0  0
   -1.4289   -1.6500    0.0000 C   0  0  0  0  0  0  0  0  0  0  0  0
   -1.4289   -2.4750    0.0000 C   0  0  0  0  0  0  0  0  0  0  0  0
   -0.7145   -2.8875    0.0000 C   0  0  0  0  0  0  0  0  0  0  0  0
    0.0000   -2.4750    0.0000 C   0  0  0  0  0  0  0  0  0  0  0  0
    0.7145   -2.8875    0.0000 C   0  0  0  0  0  0  0  0  0  0  0  0
    0.7145   -3.7125    0.0000 O   0  0  0  0  0  0  0  0  0  0  0  0
    1.4289   -2.4750    0.0000 C   0  0  0  0  0  0  0  0  0  0  0  0
    1.4289   -1.6500    0.0000 C   0  0  0  0  0  0  0  0  0  0  0  0
    0.7145   -1.2375    0.0000 N   0  0  0  0  0  0  0  0  0  0  0  0
    0.0000   -1.6500    0.0000 C   0  0  0  0  0  0  0  0  0  0  0  0
    2.1434   -1.2375    0.0000 C   0  0  0  0  0  0  0  0  0  0  0  0
    2.8579   -1.6500    0.0000 C   0  0  0  0  0  0  0  0  0  0  0  0
    2.8579   -2.4750    0.0000 C   0  0  0  0  0  0  0  0  0  0  0  0
    2.1434   -2.8875    0.0000 C   0  0  0  0  0  0  0  0  0  0  0  0
    2.1434   -3.7125    0.0000 O   0  0  0  0  0  0  0  0  0  0  0  0
    2.8579   -4.1250    0.0000 C   0  0  0  0  0  0  0  0  0  0  0  0
   -2.1434    1.2375    0.0000 C   0  0  0  0  0  0  0  0  0  0  0  0
   -2.8579    0.8250    0.0000 C   0  0  0  0  0  0  0  0  0  0  0  0
   -2.1434    2.0625    0.0000 C   0  0  0  0  0  0  0  0  0  0  0  0
   -4.2868    5.7750    0.0000 C   0  0  0  0  0  0  0  0  0  0  0  0
   -5.0013    6.1875    0.0000 C   0  0  0  0  0  0  0  0  0  0  0  0
   -5.7158    5.7750    0.0000 O   0  0  0  0  0  0  0  0  0  0  0  0
   -6.4302    6.1875    0.0000 C   0  0  0  0  0  0  0  0  0  0  0  0
  1  2  1  0  0  0  0
  2  3  1  0  0  0  0
  3  4  2  0  0  0  0
  3 41  1  0  0  0  0
  4  5  1  0  0  0  0
  5  6  2  0  0  0  0
  6  7  1  0  0  0  0
  6 40  1  0  0  0  0
  7  8  1  0  0  0  0
  8  9  1  0  0  0  0
  8 10  1  0  0  0  0
 10 11  1  0  0  0  0
 11 12  1  0  0  0  0
 12 13  1  0  0  0  0
 13 14  2  0  0  0  0
 13 39  1  0  0  0  0
 14 15  1  0  0  0  0
 15 16  2  0  0  0  0
 16 17  1  0  0  0  0
 16 37  1  0  0  0  0
 17 18  1  0  0  0  0
 18 19  2  0  0  0  0
 18 20  1  0  0  0  0
 20 21  2  0  0  0  0
 20 30  1  0  0  0  0
 21 22  1  0  0  0  0
 22 23  2  0  0  0  0
 23 24  1  0  0  0  0
 24 25  1  0  0  0  0
 24 30  2  0  0  0  0
 25 26  2  0  0  0  0
 25 27  1  0  0  0  0
 27 28  2  0  0  0  0
 27 34  1  0  0  0  0
 28 29  1  0  0  0  0
 28 31  1  0  0  0  0
 29 30  1  0  0  0  0
 31 32  2  0  0  0  0
 32 33  1  0  0  0  0
 33 34  2  0  0  0  0
 34 35  1  0  0  0  0
 35 36  1  0  0  0  0
 37 38  1  0  0  0  0
 37 39  2  0  0  0  0
 40 41  2  0  0  0  0
 41 42  1  0  0  0  0
 42 43  1  0  0  0  0
M  END
$$$$

 OpenBabel12191814062D

 40 44  0  0  0  0  0  0  0  0999 V2000
   -7.1447   -4.9500    0.0000 C   0  0  0  0  0  0  0  0  0  0  0  0
   -7.1447   -4.1250    0.0000 O   0  0  0  0  0  0  0  0  0  0  0  0
   -6.4302   -3.7125    0.0000 C   0  0  0  0  0  0  0  0  0  0  0  0
   -6.4302   -2.8875    0.0000 C   0  0  0  0  0  0  0  0  0  0  0  0
   -5.7158   -2.4750    0.0000 C   0  0  0  0  0  0  0  0  0  0  0  0
   -5.0013   -2.8875    0.0000 C   0  0  0  0  0  0  0  0  0  0  0  0
   -4.2868   -2.4750    0.0000 C   0  0  0  0  0  0  0  0  0  0  0  0
   -3.5724   -2.8875    0.0000 N   0  0  0  0  0  0  0  0  0  0  0  0
   -3.5724   -3.7125    0.0000 C   0  0  0  0  0  0  0  0  0  0  0  0
   -2.8579   -2.4750    0.0000 C   0  0  0  0  0  0  0  0  0  0  0  0
   -2.1434   -2.8875    0.0000 C   0  0  0  0  0  0  0  0  0  0  0  0
   -1.4289   -2.4750    0.0000 O   0  0  0  0  0  0  0  0  0  0  0  0
   -0.7145   -2.8875    0.0000 C   0  0  0  0  0  0  0  0  0  0  0  0
    0.0000   -2.4750    0.0000 C   0  0  0  0  0  0  0  0  0  0  0  0
    0.7145   -2.8875    0.0000 C   0  0  0  0  0  0  0  0  0  0  0  0
    0.7145   -3.7125    0.0000 C   0  0  0  0  0  0  0  0  0  0  0  0
    1.4289   -4.1250    0.0000 N   0  0  0  0  0  0  0  0  0  0  0  0
    2.1434   -3.7125    0.0000 C   0  0  0  0  0  0  0  0  0  0  0  0
    2.8579   -4.1250    0.0000 O   0  0  0  0  0  0  0  0  0  0  0  0
    2.1434   -2.8875    0.0000 C   0  0  0  0  0  0  0  0  0  0  0  0
    1.4289   -2.4750    0.0000 C   0  0  0  0  0  0  0  0  0  0  0  0
    1.4289   -1.6500    0.0000 C   0  0  0  0  0  0  0  0  0  0  0  0
    2.1434   -1.2375    0.0000 C   0  0  0  0  0  0  0  0  0  0  0  0
    2.8579   -1.6500    0.0000 C   0  0  0  0  0  0  0  0  0  0  0  0
    3.5724   -1.2375    0.0000 C   0  0  0  0  0  0  0  0  0  0  0  0
    3.5724   -0.4125    0.0000 O   0  0  0  0  0  0  0  0  0  0  0  0
    4.2868   -1.6500    0.0000 C   0  0  0  0  0  0  0  0  0  0  0  0
    5.0013   -1.2375    0.0000 C   0  0  0  0  0  0  0  0  0  0  0  0
    5.7158   -1.6500    0.0000 C   0  0  0  0  0  0  0  0  0  0  0  0
    5.7158   -2.4750    0.0000 C   0  0  0  0  0  0  0  0  0  0  0  0
    5.0013   -2.8875    0.0000 C   0  0  0  0  0  0  0  0  0  0  0  0
    4.2868   -2.4750    0.0000 C   0  0  0  0  0  0  0  0  0  0  0  0
    3.5724   -2.8875    0.0000 N   0  0  0  0  0  0  0  0  0  0  0  0
    2.8579   -2.4750    0.0000 C   0  0  0  0  0  0  0  0  0  0  0  0
    0.0000   -4.1250    0.0000 C   0  0  0  0  0  0  0  0  0  0  0  0
   -0.7145   -3.7125    0.0000 C   0  0  0  0  0  0  0  0  0  0  0  0
   -5.0013   -3.7125    0.0000 C   0  0  0  0  0  0  0  0  0  0  0  0
   -5.7158   -4.1250    0.0000 C   0  0  0  0  0  0  0  0  0  0  0  0
   -5.7158   -4.9500    0.0000 O   0  0  0  0  0  0  0  0  0  0  0  0
   -6.4302   -5.3625    0.0000 C   0  0  0  0  0  0  0  0  0  0  0  0
  1  2  1  0  0  0  0
  2  3  1  0  0  0  0
  3  4  2  0  0  0  0
  3 38  1  0  0  0  0
  4  5  1  0  0  0  0
  5  6  2  0  0  0  0
  6  7  1  0  0  0  0
  6 37  1  0  0  0  0
  7  8  1  0  0  0  0
  8  9  1  0  0  0  0
  8 10  1  0  0  0  0
 10 11  1  0  0  0  0
 11 12  1  0  0  0  0
 12 13  1  0  0  0  0
 13 14  2  0  0  0  0
 13 36  1  0  0  0  0
 14 15  1  0  0  0  0
 15 16  2  0  0  0  0
 16 17  1  0  0  0  0
 16 35  1  0  0  0  0
 17 18  1  0  0  0  0
 18 19  2  0  0  0  0
 18 20  1  0  0  0  0
 20 21  2  0  0  0  0
 20 34  1  0  0  0  0
 21 22  1  0  0  0  0
 22 23  2  0  0  0  0
 23 24  1  0  0  0  0
 24 25  1  0  0  0  0
 24 34  2  0  0  0  0
 25 26  2  0  0  0  0
 25 27  1  0  0  0  0
 27 28  2  0  0  0  0
 27 32  1  0  0  0  0
 28 29  1  0  0  0  0
 29 30  2  0  0  0  0
 30 31  1  0  0  0  0
 31 32  2  0  0  0  0
 32 33  1  0  0  0  0
 33 34  1  0  0  0  0
 35 36  2  0  0  0  0
 37 38  2  0  0  0  0
 38 39  1  0  0  0  0
 39 40  1  0  0  0  0
M  END
$$$$

 OpenBabel12191814062D

 39 43  0  0  0  0  0  0  0  0999 V2000
   -7.1447   -4.9500    0.0000 C   0  0  0  0  0  0  0  0  0  0  0  0
   -7.1447   -4.1250    0.0000 O   0  0  0  0  0  0  0  0  0  0  0  0
   -6.4302   -3.7125    0.0000 C   0  0  0  0  0  0  0  0  0  0  0  0
   -6.4302   -2.8875    0.0000 C   0  0  0  0  0  0  0  0  0  0  0  0
   -5.7158   -2.4750    0.0000 C   0  0  0  0  0  0  0  0  0  0  0  0
   -5.0013   -2.8875    0.0000 C   0  0  0  0  0  0  0  0  0  0  0  0
   -4.2868   -2.4750    0.0000 C   0  0  0  0  0  0  0  0  0  0  0  0
   -3.5724   -2.8875    0.0000 N   0  0  0  0  0  0  0  0  0  0  0  0
   -3.5724   -3.7125    0.0000 C   0  0  0  0  0  0  0  0  0  0  0  0
   -2.8579   -2.4750    0.0000 C   0  0  0  0  0  0  0  0  0  0  0  0
   -2.1434   -2.8875    0.0000 C   0  0  0  0  0  0  0  0  0  0  0  0
   -1.4289   -2.4750    0.0000 O   0  0  0  0  0  0  0  0  0  0  0  0
   -0.7145   -2.8875    0.0000 C   0  0  0  0  0  0  0  0  0  0  0  0
    0.0000   -2.4750    0.0000 C   0  0  0  0  0  0  0  0  0  0  0  0
    0.7145   -2.8875    0.0000 C   0  0  0  0  0  0  0  0  0  0  0  0
    0.7145   -3.7125    0.0000 C   0  0  0  0  0  0  0  0  0  0  0  0
    1.4289   -4.1250    0.0000 N   0  0  0  0  0  0  0  0  0  0  0  0
    2.1434   -3.7125    0.0000 C   0  0  0  0  0  0  0  0  0  0  0  0
    2.8579   -4.1250    0.0000 O   0  0  0  0  0  0  0  0  0  0  0  0
    2.1434   -2.8875    0.0000 C   0  0  0  0  0  0  0  0  0  0  0  0
    1.4289   -2.4750    0.0000 C   0  0  0  0  0  0  0  0  0  0  0  0
    1.4289   -1.6500    0.0000 C   0  0  0  0  0  0  0  0  0  0  0  0
    2.1434   -1.2375    0.0000 C   0  0  0  0  0  0  0  0  0  0  0  0
    2.8579   -1.6500    0.0000 C   0  0  0  0  0  0  0  0  0  0  0  0
    3.5724   -1.2375    0.0000 N   0  0  0  0  0  0  0  0  0  0  0  0
    4.2868   -1.6500    0.0000 C   0  0  0  0  0  0  0  0  0  0  0  0
    5.0013   -1.2375    0.0000 C   0  0  0  0  0  0  0  0  0  0  0  0
    5.7158   -1.6500    0.0000 C   0  0  0  0  0  0  0  0  0  0  0  0
    5.7158   -2.4750    0.0000 C   0  0  0  0  0  0  0  0  0  0  0  0
    5.0013   -2.8875    0.0000 C   0  0  0  0  0  0  0  0  0  0  0  0
    4.2868   -2.4750    0.0000 C   0  0  0  0  0  0  0  0  0  0  0  0
    3.5724   -2.8875    0.0000 N   0  0  0  0  0  0  0  0  0  0  0  0
    2.8579   -2.4750    0.0000 C   0  0  0  0  0  0  0  0  0  0  0  0
    0.0000   -4.1250    0.0000 C   0  0  0  0  0  0  0  0  0  0  0  0
   -0.7145   -3.7125    0.0000 C   0  0  0  0  0  0  0  0  0  0  0  0
   -5.0013   -3.7125    0.0000 C   0  0  0  0  0  0  0  0  0  0  0  0
   -5.7158   -4.1250    0.0000 C   0  0  0  0  0  0  0  0  0  0  0  0
   -5.7158   -4.9500    0.0000 O   0  0  0  0  0  0  0  0  0  0  0  0
   -6.4302   -5.3625    0.0000 C   0  0  0  0  0  0  0  0  0  0  0  0
  1  2  1  0  0  0  0
  2  3  1  0  0  0  0
  3  4  2  0  0  0  0
  3 37  1  0  0  0  0
  4  5  1  0  0  0  0
  5  6  2  0  0  0  0
  6  7  1  0  0  0  0
  6 36  1  0  0  0  0
  7  8  1  0  0  0  0
  8  9  1  0  0  0  0
  8 10  1  0  0  0  0
 10 11  1  0  0  0  0
 11 12  1  0  0  0  0
 12 13  1  0  0  0  0
 13 14  2  0  0  0  0
 13 35  1  0  0  0  0
 14 15  1  0  0  0  0
 15 16  2  0  0  0  0
 16 17  1  0  0  0  0
 16 34  1  0  0  0  0
 17 18  1  0  0  0  0
 18 19  2  0  0  0  0
 18 20  1  0  0  0  0
 20 21  2  0  0  0  0
 20 33  1  0  0  0  0
 21 22  1  0  0  0  0
 22 23  2  0  0  0  0
 23 24  1  0  0  0  0
 24 25  2  0  0  0  0
 24 33  1  0  0  0  0
 25 26  1  0  0  0  0
 26 27  2  0  0  0  0
 26 31  1  0  0  0  0
 27 28  1  0  0  0  0
 28 29  2  0  0  0  0
 29 30  1  0  0  0  0
 30 31  2  0  0  0  0
 31 32  1  0  0  0  0
 32 33  2  0  0  0  0
 34 35  2  0  0  0  0
 36 37  2  0  0  0  0
 37 38  1  0  0  0  0
 38 39  1  0  0  0  0
M  END
$$$$

 OpenBabel12191814062D

 44 47  0  0  0  0  0  0  0  0999 V2000
    5.0013   -7.8375    0.0000 C   0  0  0  0  0  0  0  0  0  0  0  0
    4.2868   -8.2500    0.0000 O   0  0  0  0  0  0  0  0  0  0  0  0
    3.5724   -7.8375    0.0000 C   0  0  0  0  0  0  0  0  0  0  0  0
    2.8579   -8.2500    0.0000 C   0  0  0  0  0  0  0  0  0  0  0  0
    2.1434   -7.8375    0.0000 C   0  0  0  0  0  0  0  0  0  0  0  0
    2.1434   -7.0125    0.0000 C   0  0  0  0  0  0  0  0  0  0  0  0
    1.4289   -6.6000    0.0000 C   0  0  0  0  0  0  0  0  0  0  0  0
    1.4289   -5.7750    0.0000 N   0  0  0  0  0  0  0  0  0  0  0  0
    0.7145   -5.3625    0.0000 C   0  0  0  0  0  0  0  0  0  0  0  0
    0.0000   -5.7750    0.0000 C   0  0  0  0  0  0  0  0  0  0  0  0
   -0.7145   -5.3625    0.0000 O   0  0  0  0  0  0  0  0  0  0  0  0
   -1.4289   -5.7750    0.0000 C   0  0  0  0  0  0  0  0  0  0  0  0
   -1.4289   -6.6000    0.0000 O   0  0  0  0  0  0  0  0  0  0  0  0
   -2.1434   -5.3625    0.0000 C   0  0  0  0  0  0  0  0  0  0  0  0
   -2.8579   -5.7750    0.0000 C   0  0  0  0  0  0  0  0  0  0  0  0
   -3.5724   -5.3625    0.0000 C   0  0  0  0  0  0  0  0  0  0  0  0
   -3.5724   -4.5375    0.0000 C   0  0  0  0  0  0  0  0  0  0  0  0
   -2.8579   -4.1250    0.0000 C   0  0  0  0  0  0  0  0  0  0  0  0
   -2.1434   -4.5375    0.0000 C   0  0  0  0  0  0  0  0  0  0  0  0
    2.1434   -5.3625    0.0000 C   0  0  0  0  0  0  0  0  0  0  0  0
    2.8579   -5.7750    0.0000 C   0  0  0  0  0  0  0  0  0  0  0  0
    3.5724   -5.3625    0.0000 N   0  0  0  0  0  0  0  0  0  0  0  0
    4.2868   -5.7750    0.0000 C   0  0  0  0  0  0  0  0  0  0  0  0
    5.0013   -5.3625    0.0000 C   0  0  0  0  0  0  0  0  0  0  0  0
    5.7158   -5.7750    0.0000 O   0  0  0  0  0  0  0  0  0  0  0  0
    6.4302   -5.3625    0.0000 C   0  0  0  0  0  0  0  0  0  0  0  0
    6.4302   -4.5375    0.0000 O   0  0  0  0  0  0  0  0  0  0  0  0
    7.1447   -5.7750    0.0000 C   0  0  0  0  0  0  0  0  0  0  0  0
    7.8592   -5.3625    0.0000 C   0  0  0  0  0  0  0  0  0  0  0  0
    8.5737   -5.7750    0.0000 C   0  0  0  0  0  0  0  0  0  0  0  0
    8.5737   -6.6000    0.0000 C   0  0  0  0  0  0  0  0  0  0  0  0
    7.8592   -7.0125    0.0000 C   0  0  0  0  0  0  0  0  0  0  0  0
    7.1447   -6.6000    0.0000 C   0  0  0  0  0  0  0  0  0  0  0  0
    3.5724   -4.5375    0.0000 C   0  0  0  0  0  0  0  0  0  0  0  0
    4.2868   -4.1250    0.0000 C   0  0  0  0  0  0  0  0  0  0  0  0
    4.2868   -3.3000    0.0000 C   0  0  0  0  0  0  0  0  0  0  0  0
    5.0013   -2.8875    0.0000 C   0  0  0  0  0  0  0  0  0  0  0  0
    5.7158   -3.3000    0.0000 C   0  0  0  0  0  0  0  0  0  0  0  0
    6.4302   -2.8875    0.0000 O   0  0  0  0  0  0  0  0  0  0  0  0
    7.1447   -3.3000    0.0000 C   0  0  0  0  0  0  0  0  0  0  0  0
    5.7158   -4.1250    0.0000 C   0  0  0  0  0  0  0  0  0  0  0  0
    5.0013   -4.5375    0.0000 C   0  0  0  0  0  0  0  0  0  0  0  0
    2.8579   -6.6000    0.0000 C   0  0  0  0  0  0  0  0  0  0  0  0
    3.5724   -7.0125    0.0000 C   0  0  0  0  0  0  0  0  0  0  0  0
  1  2  1  0  0  0  0
  2  3  1  0  0  0  0
  3  4  2  0  0  0  0
  3 44  1  0  0  0  0
  4  5  1  0  0  0  0
  5  6  2  0  0  0  0
  6  7  1  0  0  0  0
  6 43  1  0  0  0  0
  7  8  1  0  0  0  0
  8  9  1  0  0  0  0
  8 20  1  0  0  0  0
  9 10  1  0  0  0  0
 10 11  1  0  0  0  0
 11 12  1  0  0  0  0
 12 13  2  0  0  0  0
 12 14  1  0  0  0  0
 14 15  2  0  0  0  0
 14 19  1  0  0  0  0
 15 16  1  0  0  0  0
 16 17  2  0  0  0  0
 17 18  1  0  0  0  0
 18 19  2  0  0  0  0
 20 21  1  0  0  0  0
 21 22  1  0  0  0  0
 22 23  1  0  0  0  0
 22 34  1  0  0  0  0
 23 24  1  0  0  0  0
 24 25  1  0  0  0  0
 25 26  1  0  0  0  0
 26 27  2  0  0  0  0
 26 28  1  0  0  0  0
 28 29  2  0  0  0  0
 28 33  1  0  0  0  0
 29 30  1  0  0  0  0
 30 31  2  0  0  0  0
 31 32  1  0  0  0  0
 32 33  2  0  0  0  0
 34 35  1  0  0  0  0
 35 36  2  0  0  0  0
 35 42  1  0  0  0  0
 36 37  1  0  0  0  0
 37 38  2  0  0  0  0
 38 39  1  0  0  0  0
 38 41  1  0  0  0  0
 39 40  1  0  0  0  0
 41 42  2  0  0  0  0
 43 44  2  0  0  0  0
M  END
$$$$

 OpenBabel12191814062D

 43 48  0  0  0  0  0  0  0  0999 V2000
    0.7145   -5.3625    0.0000 C   0  0  0  0  0  0  0  0  0  0  0  0
    1.4289   -4.9500    0.0000 O   0  0  0  0  0  0  0  0  0  0  0  0
    2.1434   -5.3625    0.0000 C   0  0  0  0  0  0  0  0  0  0  0  0
    2.8579   -4.9500    0.0000 C   0  0  0  0  0  0  0  0  0  0  0  0
    3.5724   -5.3625    0.0000 C   0  0  0  0  0  0  0  0  0  0  0  0
    3.5724   -6.1875    0.0000 C   0  0  0  0  0  0  0  0  0  0  0  0
    4.2868   -6.6000    0.0000 C   0  0  0  0  0  0  0  0  0  0  0  0
    5.0013   -6.1875    0.0000 N   0  0  0  0  0  0  0  0  0  0  0  0
    5.0013   -5.3625    0.0000 C   0  0  0  0  0  0  0  0  0  0  0  0
    5.7158   -4.9500    0.0000 C   0  0  0  0  0  0  0  0  0  0  0  0
    6.4302   -5.3625    0.0000 C   0  0  0  0  0  0  0  0  0  0  0  0
    7.1447   -4.9500    0.0000 C   0  0  0  0  0  0  0  0  0  0  0  0
    7.8592   -5.3625    0.0000 C   0  0  0  0  0  0  0  0  0  0  0  0
    7.8592   -6.1875    0.0000 C   0  0  0  0  0  0  0  0  0  0  0  0
    8.5737   -6.6000    0.0000 N   0  0  0  0  0  0  0  0  0  0  0  0
    8.5737   -7.4250    0.0000 C   0  0  0  0  0  0  0  0  0  0  0  0
    7.8592   -7.8375    0.0000 O   0  0  0  0  0  0  0  0  0  0  0  0
    9.2881   -7.8375    0.0000 C   0  0  0  0  0  0  0  0  0  0  0  0
   10.0026   -7.4250    0.0000 C   0  0  0  0  0  0  0  0  0  0  0  0
   10.7171   -7.8375    0.0000 C   0  0  0  0  0  0  0  0  0  0  0  0
   10.7171   -8.6625    0.0000 C   0  0  0  0  0  0  0  0  0  0  0  0
   10.0026   -9.0750    0.0000 C   0  0  0  0  0  0  0  0  0  0  0  0
    9.2881   -8.6625    0.0000 C   0  0  0  0  0  0  0  0  0  0  0  0
    8.5737   -9.0750    0.0000 N   0  0  0  0  0  0  0  0  0  0  0  0
    8.5737   -9.9000    0.0000 C   0  0  0  0  0  0  0  0  0  0  0  0
    7.8592  -10.3125    0.0000 O   0  0  0  0  0  0  0  0  0  0  0  0
    9.2881  -10.3125    0.0000 C   0  0  0  0  0  0  0  0  0  0  0  0
   10.0026   -9.9000    0.0000 C   0  0  0  0  0  0  0  0  0  0  0  0
   10.7171  -10.3125    0.0000 N   0  0  0  0  0  0  0  0  0  0  0  0
   10.7171  -11.1375    0.0000 C   0  0  0  0  0  0  0  0  0  0  0  0
   11.4315  -11.5500    0.0000 C   0  0  0  0  0  0  0  0  0  0  0  0
   11.4315  -12.3750    0.0000 C   0  0  0  0  0  0  0  0  0  0  0  0
   10.7171  -12.7875    0.0000 C   0  0  0  0  0  0  0  0  0  0  0  0
   10.0026  -12.3750    0.0000 C   0  0  0  0  0  0  0  0  0  0  0  0
   10.0026  -11.5500    0.0000 C   0  0  0  0  0  0  0  0  0  0  0  0
    9.2881  -11.1375    0.0000 N   0  0  0  0  0  0  0  0  0  0  0  0
    7.1447   -6.6000    0.0000 C   0  0  0  0  0  0  0  0  0  0  0  0
    6.4302   -6.1875    0.0000 C   0  0  0  0  0  0  0  0  0  0  0  0
    5.7158   -6.6000    0.0000 C   0  0  0  0  0  0  0  0  0  0  0  0
    2.8579   -6.6000    0.0000 C   0  0  0  0  0  0  0  0  0  0  0  0
    2.1434   -6.1875    0.0000 C   0  0  0  0  0  0  0  0  0  0  0  0
    1.4289   -6.6000    0.0000 O   0  0  0  0  0  0  0  0  0  0  0  0
    0.7145   -6.1875    0.0000 C   0  0  0  0  0  0  0  0  0  0  0  0
  1  2  1  0  0  0  0
  2  3  1  0  0  0  0
  3  4  2  0  0  0  0
  3 41  1  0  0  0  0
  4  5  1  0  0  0  0
  5  6  2  0  0  0  0
  6  7  1  0  0  0  0
  6 40  1  0  0  0  0
  7  8  1  0  0  0  0
  8  9  1  0  0  0  0
  8 39  1  0  0  0  0
  9 10  1  0  0  0  0
 10 11  1  0  0  0  0
 11 12  2  0  0  0  0
 11 38  1  0  0  0  0
 12 13  1  0  0  0  0
 13 14  2  0  0  0  0
 14 15  1  0  0  0  0
 14 37  1  0  0  0  0
 15 16  1  0  0  0  0
 16 17  2  0  0  0  0
 16 18  1  0  0  0  0
 18 19  2  0  0  0  0
 18 23  1  0  0  0  0
 19 20  1  0  0  0  0
 20 21  2  0  0  0  0
 21 22  1  0  0  0  0
 22 23  2  0  0  0  0
 23 24  1  0  0  0  0
 24 25  1  0  0  0  0
 25 26  2  0  0  0  0
 25 27  1  0  0  0  0
 27 28  2  0  0  0  0
 27 36  1  0  0  0  0
 28 29  1  0  0  0  0
 29 30  2  0  0  0  0
 30 31  1  0  0  0  0
 30 35  1  0  0  0  0
 31 32  2  0  0  0  0
 32 33  1  0  0  0  0
 33 34  2  0  0  0  0
 34 35  1  0  0  0  0
 35 36  2  0  0  0  0
 37 38  2  0  0  0  0
 38 39  1  0  0  0  0
 40 41  2  0  0  0  0
 41 42  1  0  0  0  0
 42 43  1  0  0  0  0
M  END
$$$$

 OpenBabel12191814062D

 31 33  0  0  0  0  0  0  0  0999 V2000
    0.9565   -0.3785    0.0000 C   0  0  0  0  0  0  0  0  0  0  0  0
    1.6710   -0.7910    0.0000 O   0  0  0  0  0  0  0  0  0  0  0  0
    1.6710   -1.6160    0.0000 C   0  0  0  0  0  0  0  0  0  0  0  0
    2.3854   -2.0285    0.0000 C   0  0  0  0  0  0  0  0  0  0  0  0
    2.3854   -2.8535    0.0000 C   0  0  0  0  0  0  0  0  0  0  0  0
    1.6710   -3.2660    0.0000 C   0  0  0  0  0  0  0  0  0  0  0  0
    1.6710   -4.0910    0.0000 C   0  0  0  0  0  0  0  0  0  0  0  0
    0.9565   -4.5035    0.0000 N   0  0  0  0  0  0  0  0  0  0  0  0
    1.0181   -5.3262    0.0000 C   0  0  0  0  0  0  0  0  0  0  0  0
    0.4134   -5.8873    0.0000 C   0  0  0  0  0  0  0  0  0  0  0  0
   -0.4024   -5.7644    0.0000 N   0  0  0  0  0  0  0  0  0  0  0  0
   -0.8671   -6.4460    0.0000 C   0  0  0  0  0  0  0  0  0  0  0  0
   -1.6898   -6.3844    0.0000 C   0  0  0  0  0  0  0  0  0  0  0  0
   -2.1546   -7.0660    0.0000 C   0  0  0  0  0  0  0  0  0  0  0  0
   -2.9773   -7.0043    0.0000 C   0  0  0  0  0  0  0  0  0  0  0  0
   -3.3352   -6.2610    0.0000 C   0  0  0  0  0  0  0  0  0  0  0  0
   -4.1579   -6.1994    0.0000 O   0  0  0  0  0  0  0  0  0  0  0  0
   -4.6227   -6.8810    0.0000 C   0  0  0  0  0  0  0  0  0  0  0  0
   -2.8705   -5.5794    0.0000 C   0  0  0  0  0  0  0  0  0  0  0  0
   -3.2284   -4.8361    0.0000 O   0  0  0  0  0  0  0  0  0  0  0  0
   -2.7637   -4.1545    0.0000 C   0  0  0  0  0  0  0  0  0  0  0  0
   -2.0478   -5.6411    0.0000 C   0  0  0  0  0  0  0  0  0  0  0  0
   -0.8149   -5.0499    0.0000 C   0  0  0  0  0  0  0  0  0  0  0  0
   -1.6376   -5.1115    0.0000 S   0  0  0  0  0  0  0  0  0  0  0  0
   -0.5135   -4.2819    0.0000 N   0  0  0  0  0  0  0  0  0  0  0  0
    0.2748   -4.0387    0.0000 C   0  0  0  0  0  0  0  0  0  0  0  0
    0.3978   -3.2230    0.0000 S   0  0  0  0  0  0  0  0  0  0  0  0
    0.9565   -2.8535    0.0000 C   0  0  0  0  0  0  0  0  0  0  0  0
    0.9565   -2.0285    0.0000 C   0  0  0  0  0  0  0  0  0  0  0  0
    0.2420   -1.6160    0.0000 O   0  0  0  0  0  0  0  0  0  0  0  0
    0.2420   -0.7910    0.0000 C   0  0  0  0  0  0  0  0  0  0  0  0
  1  2  1  0  0  0  0
  2  3  1  0  0  0  0
  3  4  2  0  0  0  0
  3 29  1  0  0  0  0
  4  5  1  0  0  0  0
  5  6  2  0  0  0  0
  6  7  1  0  0  0  0
  6 28  1  0  0  0  0
  7  8  1  0  0  0  0
  8  9  1  0  0  0  0
  8 26  1  0  0  0  0
  9 10  1  0  0  0  0
 10 11  1  0  0  0  0
 11 12  1  0  0  0  0
 11 23  1  0  0  0  0
 12 13  1  0  0  0  0
 13 14  2  0  0  0  0
 13 22  1  0  0  0  0
 14 15  1  0  0  0  0
 15 16  2  0  0  0  0
 16 17  1  0  0  0  0
 16 19  1  0  0  0  0
 17 18  1  0  0  0  0
 19 20  1  0  0  0  0
 19 22  2  0  0  0  0
 20 21  1  0  0  0  0
 23 24  2  0  0  0  0
 23 25  1  0  0  0  0
 25 26  1  0  0  0  0
 26 27  2  0  0  0  0
 28 29  2  0  0  0  0
 29 30  1  0  0  0  0
 30 31  1  0  0  0  0
M  END
$$$$

 OpenBabel12191814062D

 26 28  0  0  0  0  0  0  0  0999 V2000
   -2.8579   -2.4750    0.0000 C   0  0  0  0  0  0  0  0  0  0  0  0
   -2.1434   -2.8875    0.0000 O   0  0  0  0  0  0  0  0  0  0  0  0
   -2.1434   -3.7125    0.0000 C   0  0  0  0  0  0  0  0  0  0  0  0
   -1.4289   -4.1250    0.0000 C   0  0  0  0  0  0  0  0  0  0  0  0
   -1.4289   -4.9500    0.0000 C   0  0  0  0  0  0  0  0  0  0  0  0
   -2.1434   -5.3625    0.0000 C   0  0  0  0  0  0  0  0  0  0  0  0
   -2.1434   -6.1875    0.0000 C   0  0  0  0  0  0  0  0  0  0  0  0
   -2.8579   -6.6000    0.0000 O   0  0  0  0  0  0  0  0  0  0  0  0
   -2.8579   -7.4250    0.0000 C   0  0  0  0  0  0  0  0  0  0  0  0
   -2.1434   -7.8375    0.0000 C   0  0  0  0  0  0  0  0  0  0  0  0
   -2.1434   -8.6625    0.0000 C   0  0  0  0  0  0  0  0  0  0  0  0
   -2.8579   -9.0750    0.0000 C   0  0  0  0  0  0  0  0  0  0  0  0
   -3.5724   -8.6625    0.0000 C   0  0  0  0  0  0  0  0  0  0  0  0
   -3.5724   -7.8375    0.0000 C   0  0  0  0  0  0  0  0  0  0  0  0
   -4.2868   -7.4250    0.0000 C   0  0  0  0  0  0  0  0  0  0  0  0
   -5.0013   -7.8375    0.0000 C   0  0  0  0  0  0  0  0  0  0  0  0
   -5.0013   -8.6625    0.0000 C   0  0  0  0  0  0  0  0  0  0  0  0
   -4.2868   -9.0750    0.0000 C   0  0  0  0  0  0  0  0  0  0  0  0
   -4.2868   -9.9000    0.0000 C   0  0  0  0  0  0  0  0  0  0  0  0
   -5.0013  -10.3125    0.0000 C   0  0  0  0  0  0  0  0  0  0  0  0
   -5.7158   -9.9000    0.0000 C   0  0  0  0  0  0  0  0  0  0  0  0
   -6.4302  -10.3125    0.0000 O   0  0  0  0  0  0  0  0  0  0  0  0
   -6.4302  -11.1375    0.0000 C   0  0  0  0  0  0  0  0  0  0  0  0
   -5.7158   -9.0750    0.0000 C   0  0  0  0  0  0  0  0  0  0  0  0
   -2.8579   -4.9500    0.0000 C   0  0  0  0  0  0  0  0  0  0  0  0
   -2.8579   -4.1250    0.0000 C   0  0  0  0  0  0  0  0  0  0  0  0
  1  2  1  0  0  0  0
  2  3  1  0  0  0  0
  3  4  2  0  0  0  0
  3 26  1  0  0  0  0
  4  5  1  0  0  0  0
  5  6  2  0  0  0  0
  6  7  1  0  0  0  0
  6 25  1  0  0  0  0
  7  8  1  0  0  0  0
  8  9  1  0  0  0  0
  9 10  2  0  0  0  0
  9 14  1  0  0  0  0
 10 11  1  0  0  0  0
 11 12  2  0  0  0  0
 12 13  1  0  0  0  0
 13 14  2  0  0  0  0
 14 15  1  0  0  0  0
 15 16  1  0  0  0  0
 16 17  1  0  0  0  0
 17 18  2  0  0  0  0
 17 24  1  0  0  0  0
 18 19  1  0  0  0  0
 19 20  2  0  0  0  0
 20 21  1  0  0  0  0
 21 22  1  0  0  0  0
 21 24  2  0  0  0  0
 22 23  1  0  0  0  0
 25 26  2  0  0  0  0
M  END
$$$$

 OpenBabel12191814062D

 24 26  0  0  0  0  0  0  0  0999 V2000
   -2.8579   -2.4750    0.0000 C   0  0  0  0  0  0  0  0  0  0  0  0
   -2.1434   -2.8875    0.0000 O   0  0  0  0  0  0  0  0  0  0  0  0
   -2.1434   -3.7125    0.0000 C   0  0  0  0  0  0  0  0  0  0  0  0
   -1.4289   -4.1250    0.0000 C   0  0  0  0  0  0  0  0  0  0  0  0
   -1.4289   -4.9500    0.0000 C   0  0  0  0  0  0  0  0  0  0  0  0
   -2.1434   -5.3625    0.0000 C   0  0  0  0  0  0  0  0  0  0  0  0
   -2.1434   -6.1875    0.0000 C   0  0  0  0  0  0  0  0  0  0  0  0
   -2.8579   -6.6000    0.0000 O   0  0  0  0  0  0  0  0  0  0  0  0
   -2.8579   -7.4250    0.0000 C   0  0  0  0  0  0  0  0  0  0  0  0
   -2.1434   -7.8375    0.0000 C   0  0  0  0  0  0  0  0  0  0  0  0
   -2.1434   -8.6625    0.0000 C   0  0  0  0  0  0  0  0  0  0  0  0
   -2.8579   -9.0750    0.0000 C   0  0  0  0  0  0  0  0  0  0  0  0
   -3.5724   -8.6625    0.0000 C   0  0  0  0  0  0  0  0  0  0  0  0
   -3.5724   -7.8375    0.0000 C   0  0  0  0  0  0  0  0  0  0  0  0
   -4.2868   -7.4250    0.0000 C   0  0  0  0  0  0  0  0  0  0  0  0
   -5.0013   -7.8375    0.0000 C   0  0  0  0  0  0  0  0  0  0  0  0
   -5.0013   -8.6625    0.0000 C   0  0  0  0  0  0  0  0  0  0  0  0
   -4.2868   -9.0750    0.0000 C   0  0  0  0  0  0  0  0  0  0  0  0
   -4.2868   -9.9000    0.0000 C   0  0  0  0  0  0  0  0  0  0  0  0
   -5.0013  -10.3125    0.0000 C   0  0  0  0  0  0  0  0  0  0  0  0
   -5.7158   -9.9000    0.0000 C   0  0  0  0  0  0  0  0  0  0  0  0
   -5.7158   -9.0750    0.0000 C   0  0  0  0  0  0  0  0  0  0  0  0
   -2.8579   -4.9500    0.0000 C   0  0  0  0  0  0  0  0  0  0  0  0
   -2.8579   -4.1250    0.0000 C   0  0  0  0  0  0  0  0  0  0  0  0
  1  2  1  0  0  0  0
  2  3  1  0  0  0  0
  3  4  2  0  0  0  0
  3 24  1  0  0  0  0
  4  5  1  0  0  0  0
  5  6  2  0  0  0  0
  6  7  1  0  0  0  0
  6 23  1  0  0  0  0
  7  8  1  0  0  0  0
  8  9  1  0  0  0  0
  9 10  2  0  0  0  0
  9 14  1  0  0  0  0
 10 11  1  0  0  0  0
 11 12  2  0  0  0  0
 12 13  1  0  0  0  0
 13 14  2  0  0  0  0
 14 15  1  0  0  0  0
 15 16  1  0  0  0  0
 16 17  1  0  0  0  0
 17 18  2  0  0  0  0
 17 22  1  0  0  0  0
 18 19  1  0  0  0  0
 19 20  2  0  0  0  0
 20 21  1  0  0  0  0
 21 22  2  0  0  0  0
 23 24  2  0  0  0  0
M  END
$$$$

 OpenBabel12191814062D

 26 28  0  0  0  0  0  0  0  0999 V2000
   -2.8579   -2.4750    0.0000 C   0  0  0  0  0  0  0  0  0  0  0  0
   -2.1434   -2.8875    0.0000 O   0  0  0  0  0  0  0  0  0  0  0  0
   -2.1434   -3.7125    0.0000 C   0  0  0  0  0  0  0  0  0  0  0  0
   -1.4289   -4.1250    0.0000 C   0  0  0  0  0  0  0  0  0  0  0  0
   -1.4289   -4.9500    0.0000 C   0  0  0  0  0  0  0  0  0  0  0  0
   -2.1434   -5.3625    0.0000 C   0  0  0  0  0  0  0  0  0  0  0  0
   -2.1434   -6.1875    0.0000 C   0  0  0  0  0  0  0  0  0  0  0  0
   -2.8579   -6.6000    0.0000 O   0  0  0  0  0  0  0  0  0  0  0  0
   -2.8579   -7.4250    0.0000 C   0  0  0  0  0  0  0  0  0  0  0  0
   -2.1434   -7.8375    0.0000 C   0  0  0  0  0  0  0  0  0  0  0  0
   -2.1434   -8.6625    0.0000 C   0  0  0  0  0  0  0  0  0  0  0  0
   -2.8579   -9.0750    0.0000 C   0  0  0  0  0  0  0  0  0  0  0  0
   -3.5724   -8.6625    0.0000 C   0  0  0  0  0  0  0  0  0  0  0  0
   -3.5724   -7.8375    0.0000 C   0  0  0  0  0  0  0  0  0  0  0  0
   -4.2868   -7.4250    0.0000 C   0  0  0  0  0  0  0  0  0  0  0  0
   -5.0013   -7.8375    0.0000 C   0  0  0  0  0  0  0  0  0  0  0  0
   -5.0013   -8.6625    0.0000 C   0  0  0  0  0  0  0  0  0  0  0  0
   -4.2868   -9.0750    0.0000 C   0  0  0  0  0  0  0  0  0  0  0  0
   -4.2868   -9.9000    0.0000 C   0  0  0  0  0  0  0  0  0  0  0  0
   -5.0013  -10.3125    0.0000 C   0  0  0  0  0  0  0  0  0  0  0  0
   -5.7158   -9.9000    0.0000 C   0  0  0  0  0  0  0  0  0  0  0  0
   -5.7158   -9.0750    0.0000 C   0  0  0  0  0  0  0  0  0  0  0  0
   -2.8579   -4.9500    0.0000 C   0  0  0  0  0  0  0  0  0  0  0  0
   -2.8579   -4.1250    0.0000 C   0  0  0  0  0  0  0  0  0  0  0  0
   -3.5724   -3.7125    0.0000 O   0  0  0  0  0  0  0  0  0  0  0  0
   -3.5724   -2.8875    0.0000 C   0  0  0  0  0  0  0  0  0  0  0  0
  1  2  1  0  0  0  0
  2  3  1  0  0  0  0
  3  4  2  0  0  0  0
  3 24  1  0  0  0  0
  4  5  1  0  0  0  0
  5  6  2  0  0  0  0
  6  7  1  0  0  0  0
  6 23  1  0  0  0  0
  7  8  1  0  0  0  0
  8  9  1  0  0  0  0
  9 10  2  0  0  0  0
  9 14  1  0  0  0  0
 10 11  1  0  0  0  0
 11 12  2  0  0  0  0
 12 13  1  0  0  0  0
 13 14  2  0  0  0  0
 14 15  1  0  0  0  0
 15 16  1  0  0  0  0
 16 17  1  0  0  0  0
 17 18  2  0  0  0  0
 17 22  1  0  0  0  0
 18 19  1  0  0  0  0
 19 20  2  0  0  0  0
 20 21  1  0  0  0  0
 21 22  2  0  0  0  0
 23 24  2  0  0  0  0
 24 25  1  0  0  0  0
 25 26  1  0  0  0  0
M  END
$$$$

 OpenBabel12191814062D

 26 28  0  0  0  0  0  0  0  0999 V2000
   -2.8579   -4.1250    0.0000 C   0  0  0  0  0  0  0  0  0  0  0  0
   -2.1434   -3.7125    0.0000 O   0  0  0  0  0  0  0  0  0  0  0  0
   -1.4289   -4.1250    0.0000 C   0  0  0  0  0  0  0  0  0  0  0  0
   -0.7145   -3.7125    0.0000 C   0  0  0  0  0  0  0  0  0  0  0  0
    0.0000   -4.1250    0.0000 C   0  0  0  0  0  0  0  0  0  0  0  0
    0.0000   -4.9500    0.0000 C   0  0  0  0  0  0  0  0  0  0  0  0
    0.7145   -5.3625    0.0000 O   0  0  0  0  0  0  0  0  0  0  0  0
    1.4289   -4.9500    0.0000 C   0  0  0  0  0  0  0  0  0  0  0  0
    2.1434   -5.3625    0.0000 C   0  0  3  0  0  0  0  0  0  0  0  0
    2.1434   -6.1875    0.0000 O   0  0  0  0  0  0  0  0  0  0  0  0
    2.8579   -4.9500    0.0000 C   0  0  0  0  0  0  0  0  0  0  0  0
    3.5724   -5.3625    0.0000 N   0  0  0  0  0  0  0  0  0  0  0  0
    4.2868   -4.9500    0.0000 C   0  0  0  0  0  0  0  0  0  0  0  0
    5.0013   -5.3625    0.0000 C   0  0  0  0  0  0  0  0  0  0  0  0
    5.0013   -6.1875    0.0000 N   0  0  0  0  0  0  0  0  0  0  0  0
    4.2868   -6.6000    0.0000 C   0  0  0  0  0  0  0  0  0  0  0  0
    3.5724   -6.1875    0.0000 C   0  0  0  0  0  0  0  0  0  0  0  0
    5.7158   -6.6000    0.0000 C   0  0  0  0  0  0  0  0  0  0  0  0
    6.4302   -6.1875    0.0000 C   0  0  0  0  0  0  0  0  0  0  0  0
    7.1447   -6.6000    0.0000 C   0  0  0  0  0  0  0  0  0  0  0  0
    7.1447   -7.4250    0.0000 C   0  0  0  0  0  0  0  0  0  0  0  0
    7.8592   -7.8375    0.0000 F   0  0  0  0  0  0  0  0  0  0  0  0
    6.4302   -7.8375    0.0000 C   0  0  0  0  0  0  0  0  0  0  0  0
    5.7158   -7.4250    0.0000 C   0  0  0  0  0  0  0  0  0  0  0  0
   -0.7145   -5.3625    0.0000 C   0  0  0  0  0  0  0  0  0  0  0  0
   -1.4289   -4.9500    0.0000 C   0  0  0  0  0  0  0  0  0  0  0  0
  1  2  1  0  0  0  0
  2  3  1  0  0  0  0
  3  4  2  0  0  0  0
  3 26  1  0  0  0  0
  4  5  1  0  0  0  0
  5  6  2  0  0  0  0
  6  7  1  0  0  0  0
  6 25  1  0  0  0  0
  7  8  1  0  0  0  0
  8  9  1  0  0  0  0
  9 10  1  0  0  0  0
  9 11  1  0  0  0  0
 11 12  1  0  0  0  0
 12 13  1  0  0  0  0
 12 17  1  0  0  0  0
 13 14  1  0  0  0  0
 14 15  1  0  0  0  0
 15 16  1  0  0  0  0
 15 18  1  0  0  0  0
 16 17  1  0  0  0  0
 18 19  2  0  0  0  0
 18 24  1  0  0  0  0
 19 20  1  0  0  0  0
 20 21  2  0  0  0  0
 21 22  1  0  0  0  0
 21 23  1  0  0  0  0
 23 24  2  0  0  0  0
 25 26  2  0  0  0  0
M  END
$$$$

 OpenBabel12191814062D

 29 31  0  0  0  0  0  0  0  0999 V2000
   -2.8579   -4.1250    0.0000 C   0  0  0  0  0  0  0  0  0  0  0  0
   -2.1434   -3.7125    0.0000 O   0  0  0  0  0  0  0  0  0  0  0  0
   -1.4289   -4.1250    0.0000 C   0  0  0  0  0  0  0  0  0  0  0  0
   -0.7145   -3.7125    0.0000 C   0  0  0  0  0  0  0  0  0  0  0  0
    0.0000   -4.1250    0.0000 C   0  0  0  0  0  0  0  0  0  0  0  0
    0.0000   -4.9500    0.0000 C   0  0  0  0  0  0  0  0  0  0  0  0
    0.7145   -5.3625    0.0000 O   0  0  0  0  0  0  0  0  0  0  0  0
    1.4289   -4.9500    0.0000 C   0  0  0  0  0  0  0  0  0  0  0  0
    2.1434   -5.3625    0.0000 C   0  0  3  0  0  0  0  0  0  0  0  0
    2.1434   -6.1875    0.0000 O   0  0  0  0  0  0  0  0  0  0  0  0
    2.8579   -4.9500    0.0000 C   0  0  0  0  0  0  0  0  0  0  0  0
    3.5724   -5.3625    0.0000 N   0  0  0  0  0  0  0  0  0  0  0  0
    4.2868   -4.9500    0.0000 C   0  0  0  0  0  0  0  0  0  0  0  0
    5.0013   -5.3625    0.0000 C   0  0  0  0  0  0  0  0  0  0  0  0
    5.0013   -6.1875    0.0000 N   0  0  0  0  0  0  0  0  0  0  0  0
    4.2868   -6.6000    0.0000 C   0  0  0  0  0  0  0  0  0  0  0  0
    3.5724   -6.1875    0.0000 C   0  0  0  0  0  0  0  0  0  0  0  0
    5.7158   -6.6000    0.0000 C   0  0  0  0  0  0  0  0  0  0  0  0
    6.4302   -6.1875    0.0000 C   0  0  0  0  0  0  0  0  0  0  0  0
    7.1447   -6.6000    0.0000 C   0  0  0  0  0  0  0  0  0  0  0  0
    7.1447   -7.4250    0.0000 C   0  0  0  0  0  0  0  0  0  0  0  0
    6.4302   -7.8375    0.0000 C   0  0  0  0  0  0  0  0  0  0  0  0
    5.7158   -7.4250    0.0000 C   0  0  0  0  0  0  0  0  0  0  0  0
    5.0013   -7.8375    0.0000 C   0  0  0  0  0  0  0  0  0  0  0  0
   -0.7145   -5.3625    0.0000 C   0  0  0  0  0  0  0  0  0  0  0  0
   -1.4289   -4.9500    0.0000 C   0  0  0  0  0  0  0  0  0  0  0  0
   -0.7145   -6.1875    0.0000 C   0  0  0  0  0  0  0  0  0  0  0  0
   -1.4289   -6.6000    0.0000 C   0  0  0  0  0  0  0  0  0  0  0  0
    0.0000   -6.6000    0.0000 O   0  0  0  0  0  0  0  0  0  0  0  0
  1  2  1  0  0  0  0
  2  3  1  0  0  0  0
  3  4  2  0  0  0  0
  3 26  1  0  0  0  0
  4  5  1  0  0  0  0
  5  6  2  0  0  0  0
  6  7  1  0  0  0  0
  6 25  1  0  0  0  0
  7  8  1  0  0  0  0
  8  9  1  0  0  0  0
  9 10  1  0  0  0  0
  9 11  1  0  0  0  0
 11 12  1  0  0  0  0
 12 13  1  0  0  0  0
 12 17  1  0  0  0  0
 13 14  1  0  0  0  0
 14 15  1  0  0  0  0
 15 16  1  0  0  0  0
 15 18  1  0  0  0  0
 16 17  1  0  0  0  0
 18 19  2  0  0  0  0
 18 23  1  0  0  0  0
 19 20  1  0  0  0  0
 20 21  2  0  0  0  0
 21 22  1  0  0  0  0
 22 23  2  0  0  0  0
 23 24  1  0  0  0  0
 25 26  2  0  0  0  0
 25 27  1  0  0  0  0
 27 28  1  0  0  0  0
 27 29  2  0  0  0  0
M  END
$$$$

 OpenBabel12191814062D

 37 40  0  0  0  0  0  0  0  0999 V2000
   -2.1434   -2.8875    0.0000 C   0  0  0  0  0  0  0  0  0  0  0  0
   -1.4289   -2.4750    0.0000 O   0  0  0  0  0  0  0  0  0  0  0  0
   -0.7145   -2.8875    0.0000 C   0  0  0  0  0  0  0  0  0  0  0  0
    0.0000   -2.4750    0.0000 C   0  0  0  0  0  0  0  0  0  0  0  0
    0.7145   -2.8875    0.0000 C   0  0  0  0  0  0  0  0  0  0  0  0
    0.7145   -3.7125    0.0000 C   0  0  0  0  0  0  0  0  0  0  0  0
    1.4289   -4.1250    0.0000 O   0  0  0  0  0  0  0  0  0  0  0  0
    2.1434   -3.7125    0.0000 C   0  0  0  0  0  0  0  0  0  0  0  0
    2.8579   -4.1250    0.0000 C   0  0  0  0  0  0  0  0  0  0  0  0
    3.5724   -3.7125    0.0000 C   0  0  3  0  0  0  0  0  0  0  0  0
    3.5724   -2.8875    0.0000 O   0  0  0  0  0  0  0  0  0  0  0  0
    4.2868   -4.1250    0.0000 C   0  0  0  0  0  0  0  0  0  0  0  0
    5.0013   -3.7125    0.0000 N   0  0  0  0  0  0  0  0  0  0  0  0
    5.0013   -2.8875    0.0000 C   0  0  0  0  0  0  0  0  0  0  0  0
    5.7158   -2.4750    0.0000 C   0  0  0  0  0  0  0  0  0  0  0  0
    6.4302   -2.8875    0.0000 N   0  0  0  0  0  0  0  0  0  0  0  0
    6.4302   -3.7125    0.0000 C   0  0  0  0  0  0  0  0  0  0  0  0
    5.7158   -4.1250    0.0000 C   0  0  0  0  0  0  0  0  0  0  0  0
    7.1447   -2.4750    0.0000 C   0  0  0  0  0  0  0  0  0  0  0  0
    7.1447   -1.6500    0.0000 C   0  0  0  0  0  0  0  0  0  0  0  0
    7.8592   -1.2375    0.0000 C   0  0  0  0  0  0  0  0  0  0  0  0
    8.5737   -1.6500    0.0000 C   0  0  0  0  0  0  0  0  0  0  0  0
    8.5737   -2.4750    0.0000 C   0  0  0  0  0  0  0  0  0  0  0  0
    7.8592   -2.8875    0.0000 C   0  0  0  0  0  0  0  0  0  0  0  0
    7.8592   -3.7125    0.0000 C   0  0  0  0  0  0  0  0  0  0  0  0
    0.0000   -4.1250    0.0000 C   0  0  0  0  0  0  0  0  0  0  0  0
   -0.7145   -3.7125    0.0000 C   0  0  0  0  0  0  0  0  0  0  0  0
    0.0000   -4.9500    0.0000 C   0  0  0  0  0  0  0  0  0  0  0  0
    0.7145   -5.3625    0.0000 O   0  0  0  0  0  0  0  0  0  0  0  0
   -0.7145   -5.3625    0.0000 C   0  0  0  0  0  0  0  0  0  0  0  0
   -0.7145   -6.1875    0.0000 C   0  0  0  0  0  0  0  0  0  0  0  0
   -1.4289   -6.6000    0.0000 C   0  0  0  0  0  0  0  0  0  0  0  0
   -1.4289   -7.4250    0.0000 C   0  0  0  0  0  0  0  0  0  0  0  0
   -2.1434   -7.8375    0.0000 C   0  0  0  0  0  0  0  0  0  0  0  0
   -2.8579   -7.4250    0.0000 C   0  0  0  0  0  0  0  0  0  0  0  0
   -2.8579   -6.6000    0.0000 C   0  0  0  0  0  0  0  0  0  0  0  0
   -2.1434   -6.1875    0.0000 C   0  0  0  0  0  0  0  0  0  0  0  0
  1  2  1  0  0  0  0
  2  3  1  0  0  0  0
  3  4  2  0  0  0  0
  3 27  1  0  0  0  0
  4  5  1  0  0  0  0
  5  6  2  0  0  0  0
  6  7  1  0  0  0  0
  6 26  1  0  0  0  0
  7  8  1  0  0  0  0
  8  9  1  0  0  0  0
  9 10  1  0  0  0  0
 10 11  1  0  0  0  0
 10 12  1  0  0  0  0
 12 13  1  0  0  0  0
 13 14  1  0  0  0  0
 13 18  1  0  0  0  0
 14 15  1  0  0  0  0
 15 16  1  0  0  0  0
 16 17  1  0  0  0  0
 16 19  1  0  0  0  0
 17 18  1  0  0  0  0
 19 20  2  0  0  0  0
 19 24  1  0  0  0  0
 20 21  1  0  0  0  0
 21 22  2  0  0  0  0
 22 23  1  0  0  0  0
 23 24  2  0  0  0  0
 24 25  1  0  0  0  0
 26 27  2  0  0  0  0
 26 28  1  0  0  0  0
 28 29  2  0  0  0  0
 28 30  1  0  0  0  0
 30 31  1  0  0  0  0
 31 32  1  0  0  0  0
 32 33  2  0  0  0  0
 32 37  1  0  0  0  0
 33 34  1  0  0  0  0
 34 35  2  0  0  0  0
 35 36  1  0  0  0  0
 36 37  2  0  0  0  0
M  END
$$$$

 OpenBabel12191814062D

 24 26  0  0  0  0  0  0  0  0999 V2000
    4.7812    1.9354    0.0000 C   0  0  0  0  0  0  0  0  0  0  0  0
    4.0668    2.3479    0.0000 O   0  0  0  0  0  0  0  0  0  0  0  0
    3.3523    1.9354    0.0000 C   0  0  0  0  0  0  0  0  0  0  0  0
    3.3523    1.1104    0.0000 C   0  0  0  0  0  0  0  0  0  0  0  0
    2.6378    0.6979    0.0000 C   0  0  0  0  0  0  0  0  0  0  0  0
    1.9233    1.1104    0.0000 C   0  0  0  0  0  0  0  0  0  0  0  0
    1.1387    0.8555    0.0000 N   0  0  0  0  0  0  0  0  0  0  0  0
    0.6538    1.5229    0.0000 C   0  0  0  0  0  0  0  0  0  0  0  0
    1.1387    2.1904    0.0000 N   0  0  0  0  0  0  0  0  0  0  0  0
    1.9233    1.9354    0.0000 C   0  0  0  0  0  0  0  0  0  0  0  0
    2.6378    2.3479    0.0000 C   0  0  0  0  0  0  0  0  0  0  0  0
   -0.1712    1.5229    0.0000 S   0  0  3  0  0  0  0  0  0  0  0  0
   -0.5837    2.2374    0.0000 O   0  0  0  0  0  0  0  0  0  0  0  0
   -0.5837    0.8085    0.0000 C   0  0  0  0  0  0  0  0  0  0  0  0
   -1.4087    0.8085    0.0000 C   0  0  0  0  0  0  0  0  0  0  0  0
   -1.8212    0.0940    0.0000 N   0  0  0  0  0  0  0  0  0  0  0  0
   -2.6462    0.0940    0.0000 C   0  0  0  0  0  0  0  0  0  0  0  0
   -3.0587    0.8085    0.0000 C   0  0  0  0  0  0  0  0  0  0  0  0
   -3.8837    0.8085    0.0000 C   0  0  0  0  0  0  0  0  0  0  0  0
   -2.6462    1.5229    0.0000 C   0  0  0  0  0  0  0  0  0  0  0  0
   -3.0587    2.2374    0.0000 O   0  0  0  0  0  0  0  0  0  0  0  0
   -2.6462    2.9519    0.0000 C   0  0  0  0  0  0  0  0  0  0  0  0
   -1.8212    1.5229    0.0000 C   0  0  0  0  0  0  0  0  0  0  0  0
   -1.4087    2.2374    0.0000 C   0  0  0  0  0  0  0  0  0  0  0  0
  1  2  1  0  0  0  0
  2  3  1  0  0  0  0
  3  4  2  0  0  0  0
  3 11  1  0  0  0  0
  4  5  1  0  0  0  0
  5  6  2  0  0  0  0
  6  7  1  0  0  0  0
  6 10  1  0  0  0  0
  7  8  1  0  0  0  0
  8  9  2  0  0  0  0
  8 12  1  0  0  0  0
  9 10  1  0  0  0  0
 10 11  2  0  0  0  0
 12 13  2  0  0  0  0
 12 14  1  0  0  0  0
 14 15  1  0  0  0  0
 15 16  2  0  0  0  0
 15 23  1  0  0  0  0
 16 17  1  0  0  0  0
 17 18  2  0  0  0  0
 18 19  1  0  0  0  0
 18 20  1  0  0  0  0
 20 21  1  0  0  0  0
 20 23  2  0  0  0  0
 21 22  1  0  0  0  0
 23 24  1  0  0  0  0
M  END
$$$$

 OpenBabel12191814062D

 32 36  0  0  0  0  0  0  0  0999 V2000
    0.0000   -2.4750    0.0000 C   0  0  0  0  0  0  0  0  0  0  0  0
    0.0000   -1.6500    0.0000 O   0  0  0  0  0  0  0  0  0  0  0  0
    0.7145   -1.2375    0.0000 C   0  0  0  0  0  0  0  0  0  0  0  0
    0.7145   -0.4125    0.0000 C   0  0  0  0  0  0  0  0  0  0  0  0
    1.4289    0.0000    0.0000 C   0  0  0  0  0  0  0  0  0  0  0  0
    2.1434   -0.4125    0.0000 C   0  0  0  0  0  0  0  0  0  0  0  0
    2.8579    0.0000    0.0000 C   0  0  0  0  0  0  0  0  0  0  0  0
    3.5724   -0.4125    0.0000 C   0  0  0  0  0  0  0  0  0  0  0  0
    3.5724   -1.2375    0.0000 C   0  0  0  0  0  0  0  0  0  0  0  0
    2.8579   -1.6500    0.0000 C   0  0  0  0  0  0  0  0  0  0  0  0
    2.1434   -1.2375    0.0000 C   0  0  0  0  0  0  0  0  0  0  0  0
    1.4289   -1.6500    0.0000 C   0  0  0  0  0  0  0  0  0  0  0  0
    4.2868   -0.0000    0.0000 C   0  0  0  0  0  0  0  0  0  0  0  0
    4.2868    0.8250    0.0000 C   0  0  0  0  0  0  0  0  0  0  0  0
    5.0013    1.2375    0.0000 C   0  0  0  0  0  0  0  0  0  0  0  0
    5.7158    0.8250    0.0000 C   0  0  0  0  0  0  0  0  0  0  0  0
    5.7158   -0.0000    0.0000 C   0  0  0  0  0  0  0  0  0  0  0  0
    5.0013   -0.4125    0.0000 C   0  0  0  0  0  0  0  0  0  0  0  0
    2.8579    0.8250    0.0000 C   0  0  0  0  0  0  0  0  0  0  0  0
    2.1434    1.2375    0.0000 C   0  0  0  0  0  0  0  0  0  0  0  0
    2.1434    2.0625    0.0000 C   0  0  0  0  0  0  0  0  0  0  0  0
    2.8579    2.4750    0.0000 C   0  0  0  0  0  0  0  0  0  0  0  0
    2.8579    3.3000    0.0000 O   0  0  0  0  0  0  0  0  0  0  0  0
    3.5724    3.7125    0.0000 C   0  0  0  0  0  0  0  0  0  0  0  0
    3.5724    4.5375    0.0000 C   0  0  0  0  0  0  0  0  0  0  0  0
    4.2868    4.9500    0.0000 N   0  0  0  0  0  0  0  0  0  0  0  0
    4.3731    5.7705    0.0000 C   0  0  0  0  0  0  0  0  0  0  0  0
    5.1800    5.9420    0.0000 C   0  0  0  0  0  0  0  0  0  0  0  0
    5.5925    5.2275    0.0000 C   0  0  0  0  0  0  0  0  0  0  0  0
    5.0405    4.6144    0.0000 C   0  0  0  0  0  0  0  0  0  0  0  0
    3.5724    2.0625    0.0000 C   0  0  0  0  0  0  0  0  0  0  0  0
    3.5724    1.2375    0.0000 C   0  0  0  0  0  0  0  0  0  0  0  0
  1  2  1  0  0  0  0
  2  3  1  0  0  0  0
  3  4  2  0  0  0  0
  3 12  1  0  0  0  0
  4  5  1  0  0  0  0
  5  6  2  0  0  0  0
  6  7  1  0  0  0  0
  6 11  1  0  0  0  0
  7  8  2  0  0  0  0
  7 19  1  0  0  0  0
  8  9  1  0  0  0  0
  8 13  1  0  0  0  0
  9 10  1  0  0  0  0
 10 11  1  0  0  0  0
 11 12  2  0  0  0  0
 13 14  2  0  0  0  0
 13 18  1  0  0  0  0
 14 15  1  0  0  0  0
 15 16  2  0  0  0  0
 16 17  1  0  0  0  0
 17 18  2  0  0  0  0
 19 20  2  0  0  0  0
 19 32  1  0  0  0  0
 20 21  1  0  0  0  0
 21 22  2  0  0  0  0
 22 23  1  0  0  0  0
 22 31  1  0  0  0  0
 23 24  1  0  0  0  0
 24 25  1  0  0  0  0
 25 26  1  0  0  0  0
 26 27  1  0  0  0  0
 26 30  1  0  0  0  0
 27 28  1  0  0  0  0
 28 29  1  0  0  0  0
 29 30  1  0  0  0  0
 31 32  2  0  0  0  0
M  END
$$$$

 OpenBabel12191814062D

 23 25  0  0  0  0  0  0  0  0999 V2000
   -2.1434   -0.4125    0.0000 C   0  0  0  0  0  0  0  0  0  0  0  0
   -1.4289    0.0000    0.0000 O   0  0  0  0  0  0  0  0  0  0  0  0
   -0.7145   -0.4125    0.0000 C   0  0  0  0  0  0  0  0  0  0  0  0
   -0.7145   -1.2375    0.0000 C   0  0  0  0  0  0  0  0  0  0  0  0
    0.0000   -1.6500    0.0000 C   0  0  0  0  0  0  0  0  0  0  0  0
    0.7145   -1.2375    0.0000 C   0  0  0  0  0  0  0  0  0  0  0  0
    0.7145   -0.4125    0.0000 C   0  0  0  0  0  0  0  0  0  0  0  0
    0.0000   -0.0000    0.0000 C   0  0  0  0  0  0  0  0  0  0  0  0
    1.4289   -0.0000    0.0000 O   0  0  0  0  0  0  0  0  0  0  0  0
    2.1434   -0.4125    0.0000 C   0  0  0  0  0  0  0  0  0  0  0  0
    2.1434   -1.2375    0.0000 C   0  0  0  0  0  0  0  0  0  0  0  0
    1.4289   -1.6500    0.0000 C   0  0  0  0  0  0  0  0  0  0  0  0
    1.4289   -2.4750    0.0000 O   0  0  0  0  0  0  0  0  0  0  0  0
    2.8579   -0.0000    0.0000 C   0  0  0  0  0  0  0  0  0  0  0  0
    2.8579    0.8250    0.0000 C   0  0  0  0  0  0  0  0  0  0  0  0
    3.5724    1.2375    0.0000 C   0  0  0  0  0  0  0  0  0  0  0  0
    4.2868    0.8250    0.0000 C   0  0  0  0  0  0  0  0  0  0  0  0
    5.0013    1.2375    0.0000 O   0  0  0  0  0  0  0  0  0  0  0  0
    5.0013    2.0625    0.0000 C   0  0  0  0  0  0  0  0  0  0  0  0
    4.2868   -0.0000    0.0000 C   0  0  0  0  0  0  0  0  0  0  0  0
    5.0013   -0.4125    0.0000 O   0  0  0  0  0  0  0  0  0  0  0  0
    5.0013   -1.2375    0.0000 C   0  0  0  0  0  0  0  0  0  0  0  0
    3.5724   -0.4125    0.0000 C   0  0  0  0  0  0  0  0  0  0  0  0
  1  2  1  0  0  0  0
  2  3  1  0  0  0  0
  3  4  2  0  0  0  0
  3  8  1  0  0  0  0
  4  5  1  0  0  0  0
  5  6  2  0  0  0  0
  6  7  1  0  0  0  0
  6 12  1  0  0  0  0
  7  8  2  0  0  0  0
  7  9  1  0  0  0  0
  9 10  1  0  0  0  0
 10 11  2  0  0  0  0
 10 14  1  0  0  0  0
 11 12  1  0  0  0  0
 12 13  2  0  0  0  0
 14 15  2  0  0  0  0
 14 23  1  0  0  0  0
 15 16  1  0  0  0  0
 16 17  2  0  0  0  0
 17 18  1  0  0  0  0
 17 20  1  0  0  0  0
 18 19  1  0  0  0  0
 20 21  1  0  0  0  0
 20 23  2  0  0  0  0
 21 22  1  0  0  0  0
M  END
$$$$

 OpenBabel12191814062D

 41 46  0  0  0  0  0  0  0  0999 V2000
   -0.5541   -2.4098    0.0000 C   0  0  0  0  0  0  0  0  0  0  0  0
   -0.3705   -1.6055    0.0000 O   0  0  0  0  0  0  0  0  0  0  0  0
    0.4178   -1.3623    0.0000 C   0  0  0  0  0  0  0  0  0  0  0  0
    0.6014   -0.5580    0.0000 C   0  0  0  0  0  0  0  0  0  0  0  0
    1.3897   -0.3148    0.0000 C   0  0  0  0  0  0  0  0  0  0  0  0
    1.9945   -0.8760    0.0000 C   0  0  0  0  0  0  0  0  0  0  0  0
    2.7378   -0.5180    0.0000 C   0  0  3  0  0  0  0  0  0  0  0  0
    2.7378    0.3070    0.0000 C   0  0  0  0  0  0  0  0  0  0  0  0
    2.0233    0.7195    0.0000 N   0  0  0  0  0  0  0  0  0  0  0  0
    2.0233    1.5445    0.0000 C   0  0  0  0  0  0  0  0  0  0  0  0
    1.3089    1.9570    0.0000 C   0  0  0  0  0  0  0  0  0  0  0  0
    1.3089    2.7820    0.0000 C   0  0  0  0  0  0  0  0  0  0  0  0
    2.0233    3.1945    0.0000 N   0  0  0  0  0  0  0  0  0  0  0  0
    2.7378    2.7820    0.0000 C   0  0  0  0  0  0  0  0  0  0  0  0
    2.7378    1.9570    0.0000 C   0  0  0  0  0  0  0  0  0  0  0  0
    2.0233    4.0195    0.0000 C   0  0  0  0  0  0  0  0  0  0  0  0
    1.3089    4.4320    0.0000 N   0  0  0  0  0  0  0  0  0  0  0  0
    1.3089    5.2570    0.0000 C   0  0  0  0  0  0  0  0  0  0  0  0
    0.5944    5.6695    0.0000 N   0  0  0  0  0  0  0  0  0  0  0  0
   -0.1201    5.2570    0.0000 C   0  0  0  0  0  0  0  0  0  0  0  0
   -0.8346    5.6695    0.0000 C   0  0  0  0  0  0  0  0  0  0  0  0
   -0.8346    6.4945    0.0000 C   0  0  0  0  0  0  0  0  0  0  0  0
    2.0233    5.6695    0.0000 C   0  0  0  0  0  0  0  0  0  0  0  0
    2.1949    6.4765    0.0000 N   0  0  0  0  0  0  0  0  0  0  0  0
    3.0153    6.5627    0.0000 C   0  0  0  0  0  0  0  0  0  0  0  0
    3.3509    5.8090    0.0000 N   0  0  0  0  0  0  0  0  0  0  0  0
    4.1579    5.6375    0.0000 C   0  0  0  0  0  0  0  0  0  0  0  0
    4.7099    6.2506    0.0000 C   0  0  0  0  0  0  0  0  0  0  0  0
    5.5169    6.0791    0.0000 C   0  0  0  0  0  0  0  0  0  0  0  0
    2.7378    5.2570    0.0000 C   0  0  0  0  0  0  0  0  0  0  0  0
    2.7378    4.4320    0.0000 N   0  0  0  0  0  0  0  0  0  0  0  0
    3.4811   -0.8760    0.0000 C   0  0  0  0  0  0  0  0  0  0  0  0
    4.0859   -0.3148    0.0000 C   0  0  0  0  0  0  0  0  0  0  0  0
    4.8742   -0.5580    0.0000 C   0  0  0  0  0  0  0  0  0  0  0  0
    5.0578   -1.3623    0.0000 C   0  0  0  0  0  0  0  0  0  0  0  0
    4.4530   -1.9235    0.0000 C   0  0  0  0  0  0  0  0  0  0  0  0
    3.6647   -1.6803    0.0000 C   0  0  0  0  0  0  0  0  0  0  0  0
    3.1503   -2.3253    0.0000 C   0  0  0  0  0  0  0  0  0  0  0  0
    2.3253   -2.3253    0.0000 C   0  0  0  0  0  0  0  0  0  0  0  0
    1.8109   -1.6803    0.0000 C   0  0  0  0  0  0  0  0  0  0  0  0
    1.0226   -1.9235    0.0000 C   0  0  0  0  0  0  0  0  0  0  0  0
  1  2  1  0  0  0  0
  2  3  1  0  0  0  0
  3  4  2  0  0  0  0
  3 41  1  0  0  0  0
  4  5  1  0  0  0  0
  5  6  2  0  0  0  0
  6  7  1  0  0  0  0
  6 40  1  0  0  0  0
  7  8  1  0  0  0  0
  7 32  1  0  0  0  0
  8  9  1  0  0  0  0
  9 10  1  0  0  0  0
 10 11  1  0  0  0  0
 10 15  1  0  0  0  0
 11 12  1  0  0  0  0
 12 13  1  0  0  0  0
 13 14  1  0  0  0  0
 13 16  1  0  0  0  0
 14 15  1  0  0  0  0
 16 17  2  0  0  0  0
 16 31  1  0  0  0  0
 17 18  1  0  0  0  0
 18 19  1  0  0  0  0
 18 23  2  0  0  0  0
 19 20  1  0  0  0  0
 20 21  1  0  0  0  0
 21 22  2  0  0  0  0
 23 24  1  0  0  0  0
 23 30  1  0  0  0  0
 24 25  2  0  0  0  0
 25 26  1  0  0  0  0
 26 27  1  0  0  0  0
 26 30  1  0  0  0  0
 27 28  1  0  0  0  0
 28 29  2  0  0  0  0
 30 31  2  0  0  0  0
 32 33  2  0  0  0  0
 32 37  1  0  0  0  0
 33 34  1  0  0  0  0
 34 35  2  0  0  0  0
 35 36  1  0  0  0  0
 36 37  2  0  0  0  0
 37 38  1  0  0  0  0
 38 39  1  0  0  0  0
 39 40  1  0  0  0  0
 40 41  2  0  0  0  0
M  END
$$$$

 OpenBabel12191814062D

 39 43  0  0  0  0  0  0  0  0999 V2000
   -0.5541   -2.4098    0.0000 C   0  0  0  0  0  0  0  0  0  0  0  0
   -0.3705   -1.6055    0.0000 O   0  0  0  0  0  0  0  0  0  0  0  0
    0.4178   -1.3623    0.0000 C   0  0  0  0  0  0  0  0  0  0  0  0
    0.6014   -0.5580    0.0000 C   0  0  0  0  0  0  0  0  0  0  0  0
    1.3897   -0.3148    0.0000 C   0  0  0  0  0  0  0  0  0  0  0  0
    1.9945   -0.8760    0.0000 C   0  0  0  0  0  0  0  0  0  0  0  0
    2.7378   -0.5180    0.0000 C   0  0  3  0  0  0  0  0  0  0  0  0
    2.7378    0.3070    0.0000 C   0  0  0  0  0  0  0  0  0  0  0  0
    2.0233    0.7195    0.0000 N   0  0  0  0  0  0  0  0  0  0  0  0
    2.0233    1.5445    0.0000 C   0  0  0  0  0  0  0  0  0  0  0  0
    1.3089    1.9570    0.0000 C   0  0  0  0  0  0  0  0  0  0  0  0
    1.3089    2.7820    0.0000 C   0  0  0  0  0  0  0  0  0  0  0  0
    2.0233    3.1945    0.0000 N   0  0  0  0  0  0  0  0  0  0  0  0
    2.7378    2.7820    0.0000 C   0  0  0  0  0  0  0  0  0  0  0  0
    2.7378    1.9570    0.0000 C   0  0  0  0  0  0  0  0  0  0  0  0
    2.0233    4.0195    0.0000 C   0  0  0  0  0  0  0  0  0  0  0  0
    1.3089    4.4320    0.0000 N   0  0  0  0  0  0  0  0  0  0  0  0
    1.3089    5.2570    0.0000 C   0  0  0  0  0  0  0  0  0  0  0  0
    0.5944    5.6695    0.0000 N   0  0  0  0  0  0  0  0  0  0  0  0
   -0.1201    5.2570    0.0000 C   0  0  0  0  0  0  0  0  0  0  0  0
   -0.8346    5.6695    0.0000 C   0  0  0  0  0  0  0  0  0  0  0  0
   -0.8346    6.4945    0.0000 C   0  0  0  0  0  0  0  0  0  0  0  0
    2.0233    5.6695    0.0000 N   0  0  0  0  0  0  0  0  0  0  0  0
    2.7378    5.2570    0.0000 C   0  0  0  0  0  0  0  0  0  0  0  0
    3.4523    5.6695    0.0000 N   0  0  0  0  0  0  0  0  0  0  0  0
    4.1667    5.2570    0.0000 C   0  0  0  0  0  0  0  0  0  0  0  0
    4.8812    5.6695    0.0000 C   0  0  0  0  0  0  0  0  0  0  0  0
    5.5957    5.2570    0.0000 C   0  0  0  0  0  0  0  0  0  0  0  0
    2.7378    4.4320    0.0000 N   0  0  0  0  0  0  0  0  0  0  0  0
    3.4811   -0.8760    0.0000 C   0  0  0  0  0  0  0  0  0  0  0  0
    4.0859   -0.3148    0.0000 C   0  0  0  0  0  0  0  0  0  0  0  0
    4.8742   -0.5580    0.0000 C   0  0  0  0  0  0  0  0  0  0  0  0
    5.0578   -1.3623    0.0000 C   0  0  0  0  0  0  0  0  0  0  0  0
    4.4530   -1.9235    0.0000 C   0  0  0  0  0  0  0  0  0  0  0  0
    3.6647   -1.6803    0.0000 C   0  0  0  0  0  0  0  0  0  0  0  0
    3.1503   -2.3253    0.0000 C   0  0  0  0  0  0  0  0  0  0  0  0
    2.3253   -2.3253    0.0000 C   0  0  0  0  0  0  0  0  0  0  0  0
    1.8109   -1.6803    0.0000 C   0  0  0  0  0  0  0  0  0  0  0  0
    1.0226   -1.9235    0.0000 C   0  0  0  0  0  0  0  0  0  0  0  0
  1  2  1  0  0  0  0
  2  3  1  0  0  0  0
  3  4  2  0  0  0  0
  3 39  1  0  0  0  0
  4  5  1  0  0  0  0
  5  6  2  0  0  0  0
  6  7  1  0  0  0  0
  6 38  1  0  0  0  0
  7  8  1  0  0  0  0
  7 30  1  0  0  0  0
  8  9  1  0  0  0  0
  9 10  1  0  0  0  0
 10 11  1  0  0  0  0
 10 15  1  0  0  0  0
 11 12  1  0  0  0  0
 12 13  1  0  0  0  0
 13 14  1  0  0  0  0
 13 16  1  0  0  0  0
 14 15  1  0  0  0  0
 16 17  2  0  0  0  0
 16 29  1  0  0  0  0
 17 18  1  0  0  0  0
 18 19  1  0  0  0  0
 18 23  2  0  0  0  0
 19 20  1  0  0  0  0
 20 21  1  0  0  0  0
 21 22  2  0  0  0  0
 23 24  1  0  0  0  0
 24 25  1  0  0  0  0
 24 29  2  0  0  0  0
 25 26  1  0  0  0  0
 26 27  1  0  0  0  0
 27 28  2  0  0  0  0
 30 31  2  0  0  0  0
 30 35  1  0  0  0  0
 31 32  1  0  0  0  0
 32 33  2  0  0  0  0
 33 34  1  0  0  0  0
 34 35  2  0  0  0  0
 35 36  1  0  0  0  0
 36 37  1  0  0  0  0
 37 38  1  0  0  0  0
 38 39  2  0  0  0  0
M  END
$$$$

 OpenBabel12191814062D

 30 34  0  0  0  0  0  0  0  0999 V2000
   -0.6397   -5.5838    0.0000 C   0  0  0  0  0  0  0  0  0  0  0  0
   -0.8946   -4.7992    0.0000 O   0  0  0  0  0  0  0  0  0  0  0  0
   -0.3426   -4.1861    0.0000 C   0  0  0  0  0  0  0  0  0  0  0  0
   -0.5975   -3.4015    0.0000 C   0  0  0  0  0  0  0  0  0  0  0  0
   -0.0455   -2.7884    0.0000 C   0  0  0  0  0  0  0  0  0  0  0  0
    0.7615   -2.9599    0.0000 C   0  0  0  0  0  0  0  0  0  0  0  0
    1.4289   -2.4750    0.0000 C   0  0  3  0  0  0  0  0  0  0  0  0
    2.0964   -2.9599    0.0000 O   0  0  0  0  0  0  0  0  0  0  0  0
    1.8414   -3.7445    0.0000 C   0  0  0  0  0  0  0  0  0  0  0  0
    2.3264   -4.4120    0.0000 O   0  0  0  0  0  0  0  0  0  0  0  0
    1.0164   -3.7445    0.0000 C   0  0  0  0  0  0  0  0  0  0  0  0
    0.4644   -4.3576    0.0000 C   0  0  0  0  0  0  0  0  0  0  0  0
    0.7193   -5.1423    0.0000 O   0  0  0  0  0  0  0  0  0  0  0  0
    0.1673   -5.7554    0.0000 C   0  0  0  0  0  0  0  0  0  0  0  0
    1.4289   -1.6500    0.0000 C   0  0  3  0  0  0  0  0  0  0  0  0
    0.7145   -1.2375    0.0000 N   0  0  0  0  0  0  0  0  0  0  0  0
    0.0000   -1.6500    0.0000 C   0  0  0  0  0  0  0  0  0  0  0  0
    0.7145   -0.4125    0.0000 C   0  0  0  0  0  0  0  0  0  0  0  0
    1.4289    0.0000    0.0000 C   0  0  0  0  0  0  0  0  0  0  0  0
    2.1434   -0.4125    0.0000 C   0  0  0  0  0  0  0  0  0  0  0  0
    2.8579    0.0000    0.0000 C   0  0  0  0  0  0  0  0  0  0  0  0
    3.5724   -0.4125    0.0000 C   0  0  0  0  0  0  0  0  0  0  0  0
    4.3570   -0.1576    0.0000 O   0  0  0  0  0  0  0  0  0  0  0  0
    4.8419   -0.8250    0.0000 C   0  0  0  0  0  0  0  0  0  0  0  0
    4.3570   -1.4924    0.0000 O   0  0  0  0  0  0  0  0  0  0  0  0
    3.5724   -1.2375    0.0000 C   0  0  0  0  0  0  0  0  0  0  0  0
    2.8579   -1.6500    0.0000 C   0  0  0  0  0  0  0  0  0  0  0  0
    2.8579   -2.4750    0.0000 O   0  0  0  0  0  0  0  0  0  0  0  0
    3.5724   -2.8875    0.0000 C   0  0  0  0  0  0  0  0  0  0  0  0
    2.1434   -1.2375    0.0000 C   0  0  0  0  0  0  0  0  0  0  0  0
  1  2  1  0  0  0  0
  2  3  1  0  0  0  0
  3  4  2  0  0  0  0
  3 12  1  0  0  0  0
  4  5  1  0  0  0  0
  5  6  2  0  0  0  0
  6  7  1  0  0  0  0
  6 11  1  0  0  0  0
  7  8  1  0  0  0  0
  7 15  1  0  0  0  0
  8  9  1  0  0  0  0
  9 10  2  0  0  0  0
  9 11  1  0  0  0  0
 11 12  2  0  0  0  0
 12 13  1  0  0  0  0
 13 14  1  0  0  0  0
 15 16  1  0  0  0  0
 15 30  1  0  0  0  0
 16 17  1  0  0  0  0
 16 18  1  0  0  0  0
 18 19  1  0  0  0  0
 19 20  1  0  0  0  0
 20 21  2  0  0  0  0
 20 30  1  0  0  0  0
 21 22  1  0  0  0  0
 22 23  1  0  0  0  0
 22 26  2  0  0  0  0
 23 24  1  0  0  0  0
 24 25  1  0  0  0  0
 25 26  1  0  0  0  0
 26 27  1  0  0  0  0
 27 28  1  0  0  0  0
 27 30  2  0  0  0  0
 28 29  1  0  0  0  0
M  END
$$$$

 OpenBabel12191814062D

 40 46  0  0  0  0  0  0  0  0999 V2000
    8.5627    0.0903    0.0000 C   0  0  0  0  0  0  0  0  0  0  0  0
    7.7700    0.3191    0.0000 O   0  0  0  0  0  0  0  0  0  0  0  0
    7.1755   -0.2530    0.0000 C   0  0  0  0  0  0  0  0  0  0  0  0
    6.3829   -0.0242    0.0000 C   0  0  0  0  0  0  0  0  0  0  0  0
    5.7884   -0.5962    0.0000 C   0  0  0  0  0  0  0  0  0  0  0  0
    5.9866   -1.3970    0.0000 C   0  0  0  0  0  0  0  0  0  0  0  0
    5.3921   -1.9691    0.0000 C   0  0  3  0  0  0  0  0  0  0  0  0
    5.5903   -2.7699    0.0000 C   0  0  3  0  0  0  0  0  0  0  0  0
    6.3829   -2.9987    0.0000 C   0  0  0  0  0  0  0  0  0  0  0  0
    6.9774   -2.4267    0.0000 O   0  0  0  0  0  0  0  0  0  0  0  0
    6.7792   -1.6258    0.0000 C   0  0  0  0  0  0  0  0  0  0  0  0
    7.3737   -1.0538    0.0000 C   0  0  0  0  0  0  0  0  0  0  0  0
    4.9958   -3.3420    0.0000 C   0  0  0  0  0  0  0  0  0  0  0  0
    5.6624   -3.8281    0.0000 C   0  0  0  0  0  0  0  0  0  0  0  0
    4.6328   -4.0828    0.0000 C   0  0  0  0  0  0  0  0  0  0  0  0
    4.2032   -3.1131    0.0000 O   0  0  0  0  0  0  0  0  0  0  0  0
    4.0050   -2.3123    0.0000 C   0  0  0  0  0  0  0  0  0  0  0  0
    4.5995   -1.7403    0.0000 C   0  0  0  0  0  0  0  0  0  0  0  0
    4.4013   -0.9394    0.0000 C   0  0  0  0  0  0  0  0  0  0  0  0
    4.9958   -0.3674    0.0000 O   0  0  0  0  0  0  0  0  0  0  0  0
    3.6087   -0.7106    0.0000 C   0  0  0  0  0  0  0  0  0  0  0  0
    3.4105    0.0903    0.0000 O   0  0  0  0  0  0  0  0  0  0  0  0
    3.0142   -1.2826    0.0000 C   0  0  0  0  0  0  0  0  0  0  0  0
    3.2124   -2.0835    0.0000 C   0  0  0  0  0  0  0  0  0  0  0  0
    2.6179   -2.6555    0.0000 O   0  0  0  0  0  0  0  0  0  0  0  0
    1.8253   -2.4267    0.0000 C   0  0  0  0  0  0  0  0  0  0  0  0
    1.7376   -3.2470    0.0000 C   0  0  0  0  0  0  0  0  0  0  0  0
    1.0022   -2.4828    0.0000 C   0  0  0  0  0  0  0  0  0  0  0  0
    1.6271   -1.6258    0.0000 C   0  0  3  0  0  0  0  0  0  0  0  0
    0.8345   -1.3970    0.0000 C   0  0  0  0  0  0  0  0  0  0  0  0
    0.6363   -0.5962    0.0000 O   0  0  0  0  0  0  0  0  0  0  0  0
    1.2308   -0.0242    0.0000 C   0  0  0  0  0  0  0  0  0  0  0  0
    1.0326    0.7767    0.0000 C   0  0  0  0  0  0  0  0  0  0  0  0
    1.6271    1.3487    0.0000 C   0  0  0  0  0  0  0  0  0  0  0  0
    1.4289    2.1496    0.0000 O   0  0  0  0  0  0  0  0  0  0  0  0
    0.6363    2.3784    0.0000 C   0  0  0  0  0  0  0  0  0  0  0  0
    2.4197    1.1199    0.0000 C   0  0  0  0  0  0  0  0  0  0  0  0
    2.6179    0.3191    0.0000 C   0  0  0  0  0  0  0  0  0  0  0  0
    2.0234   -0.2530    0.0000 C   0  0  0  0  0  0  0  0  0  0  0  0
    2.2216   -1.0538    0.0000 C   0  0  3  0  0  0  0  0  0  0  0  0
  1  2  1  0  0  0  0
  2  3  1  0  0  0  0
  3  4  2  0  0  0  0
  3 12  1  0  0  0  0
  4  5  1  0  0  0  0
  5  6  2  0  0  0  0
  6  7  1  0  0  0  0
  6 11  1  0  0  0  0
  7  8  1  0  0  0  0
  7 18  1  0  0  0  0
  8  9  1  0  0  0  0
  8 13  1  0  0  0  0
  9 10  1  0  0  0  0
 10 11  1  0  0  0  0
 11 12  2  0  0  0  0
 13 14  1  0  0  0  0
 13 15  1  0  0  0  0
 13 16  1  0  0  0  0
 16 17  1  0  0  0  0
 17 18  2  0  0  0  0
 17 24  1  0  0  0  0
 18 19  1  0  0  0  0
 19 20  2  0  0  0  0
 19 21  1  0  0  0  0
 21 22  2  0  0  0  0
 21 23  1  0  0  0  0
 23 24  2  0  0  0  0
 23 40  1  0  0  0  0
 24 25  1  0  0  0  0
 25 26  1  0  0  0  0
 26 27  1  0  0  0  0
 26 28  1  0  0  0  0
 26 29  1  0  0  0  0
 29 30  1  0  0  0  0
 29 40  1  0  0  0  0
 30 31  1  0  0  0  0
 31 32  1  0  0  0  0
 32 33  2  0  0  0  0
 32 39  1  0  0  0  0
 33 34  1  0  0  0  0
 34 35  1  0  0  0  0
 34 37  2  0  0  0  0
 35 36  1  0  0  0  0
 37 38  1  0  0  0  0
 38 39  2  0  0  0  0
 39 40  1  0  0  0  0
M  END
$$$$

 OpenBabel12191814062D

 45 52  0  0  0  0  0  0  0  0999 V2000
   -1.1183   -3.2009    0.0000 C   0  0  0  0  0  0  0  0  0  0  0  0
   -0.2972   -3.2801    0.0000 O   0  0  0  0  0  0  0  0  0  0  0  0
    0.1820   -2.6086    0.0000 C   0  0  0  0  0  0  0  0  0  0  0  0
   -0.1752   -1.8600    0.0000 C   0  0  0  0  0  0  0  0  0  0  0  0
    0.2834   -1.1616    0.0000 C   0  0  0  0  0  0  0  0  0  0  0  0
    1.1379   -1.1557    0.0000 C   0  0  0  0  0  0  0  0  0  0  0  0
    1.8301   -0.5649    0.0000 C   0  0  0  0  0  0  0  0  0  0  0  0
    2.7310   -0.7139    0.0000 C   0  0  3  0  0  0  0  0  0  0  0  0
    2.1532   -1.2658    0.0000 N   0  0  0  0  0  0  0  0  0  0  0  0
    1.3716   -1.0018    0.0000 C   0  0  0  0  0  0  0  0  0  0  0  0
    2.2837   -2.0906    0.0000 C   0  0  0  0  0  0  0  0  0  0  0  0
    3.0174   -2.3893    0.0000 C   0  0  0  0  0  0  0  0  0  0  0  0
    3.5837   -1.8375    0.0000 C   0  0  0  0  0  0  0  0  0  0  0  0
    4.1575   -2.3966    0.0000 C   0  0  0  0  0  0  0  0  0  0  0  0
    4.8866   -2.0764    0.0000 C   0  0  0  0  0  0  0  0  0  0  0  0
    5.5220   -2.6026    0.0000 O   0  0  0  0  0  0  0  0  0  0  0  0
    5.3840   -3.4160    0.0000 C   0  0  0  0  0  0  0  0  0  0  0  0
    5.0739   -1.2633    0.0000 C   0  0  0  0  0  0  0  0  0  0  0  0
    5.7210   -1.8625    0.0000 O   0  0  0  0  0  0  0  0  0  0  0  0
    6.0192   -2.7014    0.0000 C   0  0  0  0  0  0  0  0  0  0  0  0
    6.7203   -2.2472    0.0000 C   0  0  0  0  0  0  0  0  0  0  0  0
    6.8211   -1.4283    0.0000 O   0  0  0  0  0  0  0  0  0  0  0  0
    7.6310   -1.2712    0.0000 C   0  0  0  0  0  0  0  0  0  0  0  0
    8.0307   -1.9929    0.0000 O   0  0  0  0  0  0  0  0  0  0  0  0
    7.4679   -2.5961    0.0000 C   0  0  0  0  0  0  0  0  0  0  0  0
    7.5312   -3.4206    0.0000 C   0  0  0  0  0  0  0  0  0  0  0  0
    6.8416   -3.8933    0.0000 C   0  0  0  0  0  0  0  0  0  0  0  0
    7.0316   -4.7035    0.0000 C   0  0  0  0  0  0  0  0  0  0  0  0
    6.4240   -5.2671    0.0000 C   0  0  0  0  0  0  0  0  0  0  0  0
    5.6307   -5.0194    0.0000 N   0  0  0  0  0  0  0  0  0  0  0  0
    5.0378   -5.5931    0.0000 C   0  0  0  0  0  0  0  0  0  0  0  0
    5.4059   -4.2067    0.0000 C   0  0  3  0  0  0  0  0  0  0  0  0
    4.5724   -4.5351    0.0000 C   0  0  0  0  0  0  0  0  0  0  0  0
    3.7060   -4.7721    0.0000 C   0  0  0  0  0  0  0  0  0  0  0  0
    3.0013   -5.2687    0.0000 C   0  0  0  0  0  0  0  0  0  0  0  0
    2.2312   -4.9655    0.0000 C   0  0  0  0  0  0  0  0  0  0  0  0
    2.0903   -4.1275    0.0000 C   0  0  0  0  0  0  0  0  0  0  0  0
    1.4848   -3.4798    0.0000 O   0  0  0  0  0  0  0  0  0  0  0  0
    1.0274   -2.7053    0.0000 C   0  0  0  0  0  0  0  0  0  0  0  0
    1.4201   -1.9516    0.0000 C   0  0  0  0  0  0  0  0  0  0  0  0
    2.7676   -3.6633    0.0000 C   0  0  0  0  0  0  0  0  0  0  0  0
    3.5331   -3.9608    0.0000 C   0  0  0  0  0  0  0  0  0  0  0  0
    6.0522   -3.5861    0.0000 C   0  0  0  0  0  0  0  0  0  0  0  0
    4.3901   -0.7393    0.0000 C   0  0  0  0  0  0  0  0  0  0  0  0
    3.5693   -1.0078    0.0000 C   0  0  0  0  0  0  0  0  0  0  0  0
  1  2  1  0  0  0  0
  2  3  1  0  0  0  0
  3  4  2  0  0  0  0
  3 39  1  0  0  0  0
  4  5  1  0  0  0  0
  5  6  2  0  0  0  0
  6  7  1  0  0  0  0
  6 40  1  0  0  0  0
  7  8  1  0  0  0  0
  8  9  1  0  0  0  0
  8 45  1  0  0  0  0
  9 10  1  0  0  0  0
  9 11  1  0  0  0  0
 11 12  1  0  0  0  0
 12 13  1  0  0  0  0
 13 14  2  0  0  0  0
 13 45  1  0  0  0  0
 14 15  1  0  0  0  0
 15 16  1  0  0  0  0
 15 18  2  0  0  0  0
 16 17  1  0  0  0  0
 18 19  1  0  0  0  0
 18 44  1  0  0  0  0
 19 20  1  0  0  0  0
 20 21  2  0  0  0  0
 20 43  1  0  0  0  0
 21 22  1  0  0  0  0
 21 25  1  0  0  0  0
 22 23  1  0  0  0  0
 23 24  1  0  0  0  0
 24 25  1  0  0  0  0
 25 26  2  0  0  0  0
 26 27  1  0  0  0  0
 27 28  1  0  0  0  0
 27 43  2  0  0  0  0
 28 29  1  0  0  0  0
 29 30  1  0  0  0  0
 30 31  1  0  0  0  0
 30 32  1  0  0  0  0
 32 33  1  0  0  0  0
 32 43  1  0  0  0  0
 33 34  1  0  0  0  0
 34 35  2  0  0  0  0
 34 42  1  0  0  0  0
 35 36  1  0  0  0  0
 36 37  2  0  0  0  0
 37 38  1  0  0  0  0
 37 41  1  0  0  0  0
 38 39  1  0  0  0  0
 39 40  2  0  0  0  0
 41 42  2  0  0  0  0
 44 45  2  0  0  0  0
M  END
$$$$

 OpenBabel12191814062D

 31 34  0  0  0  0  0  0  0  0999 V2000
   -0.2493   -3.3143    0.0000 C   0  0  0  0  0  0  0  0  0  0  0  0
    0.5259   -3.0322    0.0000 O   0  0  0  0  0  0  0  0  0  0  0  0
    0.6692   -2.2197    0.0000 C   0  0  0  0  0  0  0  0  0  0  0  0
    0.0372   -1.6894    0.0000 C   0  0  0  0  0  0  0  0  0  0  0  0
    0.1805   -0.8769    0.0000 C   0  0  0  0  0  0  0  0  0  0  0  0
    0.9557   -0.5948    0.0000 C   0  0  0  0  0  0  0  0  0  0  0  0
    0.8125    0.2177    0.0000 C   0  0  0  0  0  0  0  0  0  0  0  0
    1.2250    0.9322    0.0000 C   0  0  0  0  0  0  0  0  0  0  0  0
    2.0002    1.2143    0.0000 N   0  0  0  0  0  0  0  0  0  0  0  0
    2.0002    2.0393    0.0000 C   0  0  0  0  0  0  0  0  0  0  0  0
    2.7755    0.9322    0.0000 C   0  0  3  0  0  0  0  0  0  0  0  0
    3.3058    1.5642    0.0000 C   0  0  0  0  0  0  0  0  0  0  0  0
    3.0236    2.3394    0.0000 C   0  0  0  0  0  0  0  0  0  0  0  0
    3.5539    2.9714    0.0000 C   0  0  0  0  0  0  0  0  0  0  0  0
    3.2717    3.7466    0.0000 C   0  0  0  0  0  0  0  0  0  0  0  0
    3.8020    4.3786    0.0000 C   0  0  0  0  0  0  0  0  0  0  0  0
    4.6145    4.2354    0.0000 C   0  0  0  0  0  0  0  0  0  0  0  0
    4.8967    3.4601    0.0000 C   0  0  0  0  0  0  0  0  0  0  0  0
    4.3664    2.8281    0.0000 C   0  0  0  0  0  0  0  0  0  0  0  0
    3.1880    0.2177    0.0000 C   0  0  0  0  0  0  0  0  0  0  0  0
    3.0447   -0.5948    0.0000 C   0  0  0  0  0  0  0  0  0  0  0  0
    3.8199   -0.8769    0.0000 C   0  0  0  0  0  0  0  0  0  0  0  0
    3.9632   -1.6894    0.0000 C   0  0  0  0  0  0  0  0  0  0  0  0
    3.3312   -2.2197    0.0000 C   0  0  0  0  0  0  0  0  0  0  0  0
    3.4745   -3.0322    0.0000 O   0  0  0  0  0  0  0  0  0  0  0  0
    2.8425   -3.5625    0.0000 C   0  0  0  0  0  0  0  0  0  0  0  0
    2.5560   -1.9375    0.0000 C   0  0  0  0  0  0  0  0  0  0  0  0
    1.9240   -2.4678    0.0000 O   0  0  0  0  0  0  0  0  0  0  0  0
    2.4127   -1.1251    0.0000 C   0  0  0  0  0  0  0  0  0  0  0  0
    1.5877   -1.1251    0.0000 C   0  0  0  0  0  0  0  0  0  0  0  0
    1.4445   -1.9375    0.0000 C   0  0  0  0  0  0  0  0  0  0  0  0
  1  2  1  0  0  0  0
  2  3  1  0  0  0  0
  3  4  2  0  0  0  0
  3 31  1  0  0  0  0
  4  5  1  0  0  0  0
  5  6  2  0  0  0  0
  6  7  1  0  0  0  0
  6 30  1  0  0  0  0
  7  8  1  0  0  0  0
  8  9  1  0  0  0  0
  9 10  1  0  0  0  0
  9 11  1  0  0  0  0
 11 12  1  0  0  0  0
 11 20  1  0  0  0  0
 12 13  1  0  0  0  0
 13 14  1  0  0  0  0
 14 15  2  0  0  0  0
 14 19  1  0  0  0  0
 15 16  1  0  0  0  0
 16 17  2  0  0  0  0
 17 18  1  0  0  0  0
 18 19  2  0  0  0  0
 20 21  1  0  0  0  0
 21 22  2  0  0  0  0
 21 29  1  0  0  0  0
 22 23  1  0  0  0  0
 23 24  2  0  0  0  0
 24 25  1  0  0  0  0
 24 27  1  0  0  0  0
 25 26  1  0  0  0  0
 27 28  1  0  0  0  0
 27 29  2  0  0  0  0
 29 30  1  0  0  0  0
 30 31  2  0  0  0  0
M  END
$$$$

 OpenBabel12191814062D

 43 47  0  0  0  0  0  0  0  0999 V2000
  -10.7171    1.2375    0.0000 C   0  0  0  0  0  0  0  0  0  0  0  0
  -10.7171    2.0625    0.0000 O   0  0  0  0  0  0  0  0  0  0  0  0
  -10.0026    2.4750    0.0000 C   0  0  0  0  0  0  0  0  0  0  0  0
  -10.0026    3.3000    0.0000 C   0  0  0  0  0  0  0  0  0  0  0  0
   -9.2881    3.7125    0.0000 C   0  0  0  0  0  0  0  0  0  0  0  0
   -8.5737    3.3000    0.0000 C   0  0  0  0  0  0  0  0  0  0  0  0
   -7.8592    3.7125    0.0000 N   0  0  0  0  0  0  0  0  0  0  0  0
   -7.1447    3.3000    0.0000 C   0  0  0  0  0  0  0  0  0  0  0  0
   -6.4302    3.7125    0.0000 C   0  0  0  0  0  0  0  0  0  0  0  0
   -5.7158    3.3000    0.0000 C   0  0  0  0  0  0  0  0  0  0  0  0
   -5.7158    2.4750    0.0000 C   0  0  0  0  0  0  0  0  0  0  0  0
   -6.4302    2.0625    0.0000 C   0  0  0  0  0  0  0  0  0  0  0  0
   -7.1447    2.4750    0.0000 C   0  0  0  0  0  0  0  0  0  0  0  0
   -7.8592    2.0625    0.0000 C   0  0  0  0  0  0  0  0  0  0  0  0
   -7.8592    1.2375    0.0000 O   0  0  0  0  0  0  0  0  0  0  0  0
   -8.5737    2.4750    0.0000 C   0  0  0  0  0  0  0  0  0  0  0  0
   -9.2881    2.0625    0.0000 C   0  0  0  0  0  0  0  0  0  0  0  0
   -6.4302    4.5375    0.0000 C   0  0  0  0  0  0  0  0  0  0  0  0
   -7.1447    4.9500    0.0000 O   0  0  0  0  0  0  0  0  0  0  0  0
   -5.7158    4.9500    0.0000 N   0  0  0  0  0  0  0  0  0  0  0  0
   -5.0013    4.5375    0.0000 C   0  0  0  0  0  0  0  0  0  0  0  0
   -4.2868    4.9500    0.0000 C   0  0  0  0  0  0  0  0  0  0  0  0
   -3.5724    4.5375    0.0000 C   0  0  0  0  0  0  0  0  0  0  0  0
   -3.5724    3.7125    0.0000 C   0  0  0  0  0  0  0  0  0  0  0  0
   -2.8579    3.3000    0.0000 C   0  0  0  0  0  0  0  0  0  0  0  0
   -2.1434    3.7125    0.0000 C   0  0  0  0  0  0  0  0  0  0  0  0
   -1.4289    3.3000    0.0000 C   0  0  0  0  0  0  0  0  0  0  0  0
   -0.7145    3.7125    0.0000 C   0  0  0  0  0  0  0  0  0  0  0  0
    0.0000    3.3000    0.0000 N   0  0  0  0  0  0  0  0  0  0  0  0
    0.0000    2.4750    0.0000 C   0  0  0  0  0  0  0  0  0  0  0  0
    0.7145    3.7125    0.0000 C   0  0  0  0  0  0  0  0  0  0  0  0
    1.4289    3.3000    0.0000 C   0  0  0  0  0  0  0  0  0  0  0  0
    2.1434    3.7125    0.0000 C   0  0  0  0  0  0  0  0  0  0  0  0
    2.8579    3.3000    0.0000 C   0  0  0  0  0  0  0  0  0  0  0  0
    2.8579    2.4750    0.0000 C   0  0  0  0  0  0  0  0  0  0  0  0
    3.5724    2.0625    0.0000 O   0  0  0  0  0  0  0  0  0  0  0  0
    4.2868    2.4750    0.0000 C   0  0  0  0  0  0  0  0  0  0  0  0
    2.1434    2.0625    0.0000 C   0  0  0  0  0  0  0  0  0  0  0  0
    2.1434    1.2375    0.0000 O   0  0  0  0  0  0  0  0  0  0  0  0
    1.4289    0.8250    0.0000 C   0  0  0  0  0  0  0  0  0  0  0  0
    1.4289    2.4750    0.0000 C   0  0  0  0  0  0  0  0  0  0  0  0
   -4.2868    3.3000    0.0000 C   0  0  0  0  0  0  0  0  0  0  0  0
   -5.0013    3.7125    0.0000 C   0  0  0  0  0  0  0  0  0  0  0  0
  1  2  1  0  0  0  0
  2  3  1  0  0  0  0
  3  4  2  0  0  0  0
  3 17  1  0  0  0  0
  4  5  1  0  0  0  0
  5  6  2  0  0  0  0
  6  7  1  0  0  0  0
  6 16  1  0  0  0  0
  7  8  1  0  0  0  0
  8  9  2  0  0  0  0
  8 13  1  0  0  0  0
  9 10  1  0  0  0  0
  9 18  1  0  0  0  0
 10 11  2  0  0  0  0
 11 12  1  0  0  0  0
 12 13  2  0  0  0  0
 13 14  1  0  0  0  0
 14 15  2  0  0  0  0
 14 16  1  0  0  0  0
 16 17  2  0  0  0  0
 18 19  2  0  0  0  0
 18 20  1  0  0  0  0
 20 21  1  0  0  0  0
 21 22  2  0  0  0  0
 21 43  1  0  0  0  0
 22 23  1  0  0  0  0
 23 24  2  0  0  0  0
 24 25  1  0  0  0  0
 24 42  1  0  0  0  0
 25 26  1  0  0  0  0
 26 27  1  0  0  0  0
 27 28  1  0  0  0  0
 28 29  1  0  0  0  0
 29 30  1  0  0  0  0
 29 31  1  0  0  0  0
 31 32  1  0  0  0  0
 32 33  2  0  0  0  0
 32 41  1  0  0  0  0
 33 34  1  0  0  0  0
 34 35  2  0  0  0  0
 35 36  1  0  0  0  0
 35 38  1  0  0  0  0
 36 37  1  0  0  0  0
 38 39  1  0  0  0  0
 38 41  2  0  0  0  0
 39 40  1  0  0  0  0
 42 43  2  0  0  0  0
M  END
$$$$

 OpenBabel12191814062D

 24 27  0  0  0  0  0  0  0  0999 V2000
    5.8119   -1.4834    0.0000 C   0  0  0  0  0  0  0  0  0  0  0  0
    5.0975   -1.0709    0.0000 O   0  0  0  0  0  0  0  0  0  0  0  0
    4.3830   -1.4834    0.0000 C   0  0  0  0  0  0  0  0  0  0  0  0
    4.3830   -2.3084    0.0000 C   0  0  0  0  0  0  0  0  0  0  0  0
    3.6685   -2.7209    0.0000 C   0  0  0  0  0  0  0  0  0  0  0  0
    2.9540   -2.3084    0.0000 C   0  0  0  0  0  0  0  0  0  0  0  0
    2.2396   -2.7209    0.0000 N   0  0  0  0  0  0  0  0  0  0  0  0
    1.5251   -2.3084    0.0000 C   0  0  0  0  0  0  0  0  0  0  0  0
    1.5251   -1.4834    0.0000 C   0  0  0  0  0  0  0  0  0  0  0  0
    2.2396   -1.0709    0.0000 C   0  0  0  0  0  0  0  0  0  0  0  0
    2.2396   -0.2459    0.0000 C   0  0  3  0  0  0  0  0  0  0  0  0
    1.5251    0.1666    0.0000 O   0  0  0  0  0  0  0  0  0  0  0  0
    2.9540    0.1666    0.0000 C   0  0  3  0  0  0  0  0  0  0  0  0
    2.9540    0.9916    0.0000 C   0  0  0  0  0  0  0  0  0  0  0  0
    3.6685    1.4041    0.0000 C   0  0  3  0  0  0  0  0  0  0  0  0
    3.8060    0.8541    0.0000 C   0  0  0  0  0  0  0  0  0  0  0  0
    3.8060    0.3041    0.0000 C   0  0  0  0  0  0  0  0  0  0  0  0
    3.6685   -0.2459    0.0000 N   0  0  3  0  0  0  0  0  0  0  0  0
    4.3830    0.1666    0.0000 C   0  0  0  0  0  0  0  0  0  0  0  0
    4.3830    0.9916    0.0000 C   0  0  3  0  0  0  0  0  0  0  0  0
    5.0975    1.4041    0.0000 C   0  0  0  0  0  0  0  0  0  0  0  0
    5.0975    2.2291    0.0000 C   0  0  0  0  0  0  0  0  0  0  0  0
    2.9540   -1.4834    0.0000 C   0  0  0  0  0  0  0  0  0  0  0  0
    3.6685   -1.0709    0.0000 C   0  0  0  0  0  0  0  0  0  0  0  0
  1  2  1  0  0  0  0
  2  3  1  0  0  0  0
  3  4  2  0  0  0  0
  3 24  1  0  0  0  0
  4  5  1  0  0  0  0
  5  6  2  0  0  0  0
  6  7  1  0  0  0  0
  6 23  1  0  0  0  0
  7  8  2  0  0  0  0
  8  9  1  0  0  0  0
  9 10  2  0  0  0  0
 10 11  1  0  0  0  0
 10 23  1  0  0  0  0
 11 12  1  0  0  0  0
 11 13  1  0  0  0  0
 13 14  1  0  0  0  0
 13 18  1  0  0  0  0
 14 15  1  0  0  0  0
 15 16  1  0  0  0  0
 15 20  1  0  0  0  0
 16 17  1  0  0  0  0
 17 18  1  0  0  0  0
 18 19  1  0  0  0  0
 19 20  1  0  0  0  0
 20 21  1  0  0  0  0
 21 22  2  0  0  0  0
 23 24  2  0  0  0  0
M  END
$$$$

 OpenBabel12191814062D

 25 27  0  0  0  0  0  0  0  0999 V2000
    0.0000   -2.4750    0.0000 C   0  0  0  0  0  0  0  0  0  0  0  0
    0.0000   -1.6500    0.0000 O   0  0  0  0  0  0  0  0  0  0  0  0
    0.7145   -1.2375    0.0000 C   0  0  0  0  0  0  0  0  0  0  0  0
    0.7145   -0.4125    0.0000 C   0  0  0  0  0  0  0  0  0  0  0  0
    1.4289    0.0000    0.0000 C   0  0  0  0  0  0  0  0  0  0  0  0
    2.1434   -0.4125    0.0000 C   0  0  0  0  0  0  0  0  0  0  0  0
    2.8579    0.0000    0.0000 O   0  0  0  0  0  0  0  0  0  0  0  0
    3.5724   -0.4125    0.0000 C   0  0  0  0  0  0  0  0  0  0  0  0
    4.2868   -0.0000    0.0000 C   0  0  0  0  0  0  0  0  0  0  0  0
    4.2868    0.8250    0.0000 C   0  0  0  0  0  0  0  0  0  0  0  0
    5.0013    1.2375    0.0000 C   0  0  0  0  0  0  0  0  0  0  0  0
    5.7158    0.8250    0.0000 C   0  0  0  0  0  0  0  0  0  0  0  0
    6.4302    1.2375    0.0000 O   0  0  0  0  0  0  0  0  0  0  0  0
    6.4302    2.0625    0.0000 C   0  0  0  0  0  0  0  0  0  0  0  0
    5.7158   -0.0000    0.0000 C   0  0  0  0  0  0  0  0  0  0  0  0
    6.4302   -0.4125    0.0000 O   0  0  0  0  0  0  0  0  0  0  0  0
    6.4302   -1.2375    0.0000 C   0  0  0  0  0  0  0  0  0  0  0  0
    5.0013   -0.4125    0.0000 C   0  0  0  0  0  0  0  0  0  0  0  0
    3.5724   -1.2375    0.0000 C   0  0  0  0  0  0  0  0  0  0  0  0
    4.2868   -1.6500    0.0000 O   0  0  0  0  0  0  0  0  0  0  0  0
    4.2868   -2.4750    0.0000 C   0  0  0  0  0  0  0  0  0  0  0  0
    2.8579   -1.6500    0.0000 C   0  0  0  0  0  0  0  0  0  0  0  0
    2.8579   -2.4750    0.0000 O   0  0  0  0  0  0  0  0  0  0  0  0
    2.1434   -1.2375    0.0000 C   0  0  0  0  0  0  0  0  0  0  0  0
    1.4289   -1.6500    0.0000 C   0  0  0  0  0  0  0  0  0  0  0  0
  1  2  1  0  0  0  0
  2  3  1  0  0  0  0
  3  4  2  0  0  0  0
  3 25  1  0  0  0  0
  4  5  1  0  0  0  0
  5  6  2  0  0  0  0
  6  7  1  0  0  0  0
  6 24  1  0  0  0  0
  7  8  1  0  0  0  0
  8  9  1  0  0  0  0
  8 19  2  0  0  0  0
  9 10  2  0  0  0  0
  9 18  1  0  0  0  0
 10 11  1  0  0  0  0
 11 12  2  0  0  0  0
 12 13  1  0  0  0  0
 12 15  1  0  0  0  0
 13 14  1  0  0  0  0
 15 16  1  0  0  0  0
 15 18  2  0  0  0  0
 16 17  1  0  0  0  0
 19 20  1  0  0  0  0
 19 22  1  0  0  0  0
 20 21  1  0  0  0  0
 22 23  2  0  0  0  0
 22 24  1  0  0  0  0
 24 25  2  0  0  0  0
M  END
$$$$

 OpenBabel12191814062D

 24 27  0  0  0  0  0  0  0  0999 V2000
   -0.9753   -1.0444    0.0000 C   0  0  0  0  0  0  0  0  0  0  0  0
   -0.3705   -1.6055    0.0000 O   0  0  0  0  0  0  0  0  0  0  0  0
    0.4178   -1.3623    0.0000 C   0  0  0  0  0  0  0  0  0  0  0  0
    0.6014   -0.5580    0.0000 C   0  0  0  0  0  0  0  0  0  0  0  0
    1.3897   -0.3148    0.0000 C   0  0  0  0  0  0  0  0  0  0  0  0
    1.9945   -0.8760    0.0000 C   0  0  0  0  0  0  0  0  0  0  0  0
    2.7378   -0.5180    0.0000 O   0  0  0  0  0  0  0  0  0  0  0  0
    3.4811   -0.8760    0.0000 C   0  0  0  0  0  0  0  0  0  0  0  0
    4.0859   -0.3148    0.0000 C   0  0  0  0  0  0  0  0  0  0  0  0
    4.8742   -0.5580    0.0000 C   0  0  0  0  0  0  0  0  0  0  0  0
    5.0578   -1.3623    0.0000 C   0  0  0  0  0  0  0  0  0  0  0  0
    4.4530   -1.9235    0.0000 C   0  0  0  0  0  0  0  0  0  0  0  0
    3.6647   -1.6803    0.0000 C   0  0  0  0  0  0  0  0  0  0  0  0
    3.1503   -2.3253    0.0000 C   0  0  0  0  0  0  0  0  0  0  0  0
    2.3253   -2.3253    0.0000 C   0  0  0  0  0  0  0  0  0  0  0  0
    1.9673   -3.0686    0.0000 N   0  0  0  0  0  0  0  0  0  0  0  0
    2.4321   -3.7502    0.0000 C   0  0  0  0  0  0  0  0  0  0  0  0
    2.0741   -4.4935    0.0000 C   0  0  0  0  0  0  0  0  0  0  0  0
    1.2514   -4.5552    0.0000 N   0  0  0  0  0  0  0  0  0  0  0  0
    0.8935   -5.2985    0.0000 C   0  0  0  0  0  0  0  0  0  0  0  0
    0.7867   -3.8736    0.0000 C   0  0  0  0  0  0  0  0  0  0  0  0
    1.1447   -3.1303    0.0000 C   0  0  0  0  0  0  0  0  0  0  0  0
    1.8109   -1.6803    0.0000 C   0  0  0  0  0  0  0  0  0  0  0  0
    1.0226   -1.9235    0.0000 C   0  0  0  0  0  0  0  0  0  0  0  0
  1  2  1  0  0  0  0
  2  3  1  0  0  0  0
  3  4  2  0  0  0  0
  3 24  1  0  0  0  0
  4  5  1  0  0  0  0
  5  6  2  0  0  0  0
  6  7  1  0  0  0  0
  6 23  1  0  0  0  0
  7  8  1  0  0  0  0
  8  9  2  0  0  0  0
  8 13  1  0  0  0  0
  9 10  1  0  0  0  0
 10 11  2  0  0  0  0
 11 12  1  0  0  0  0
 12 13  2  0  0  0  0
 13 14  1  0  0  0  0
 14 15  2  0  0  0  0
 15 16  1  0  0  0  0
 15 23  1  0  0  0  0
 16 17  1  0  0  0  0
 16 22  1  0  0  0  0
 17 18  1  0  0  0  0
 18 19  1  0  0  0  0
 19 20  1  0  0  0  0
 19 21  1  0  0  0  0
 21 22  1  0  0  0  0
 23 24  2  0  0  0  0
M  END
$$$$

 OpenBabel12191814062D

 43 47  0  0  0  0  0  0  0  0999 V2000
    5.7158    9.9000    0.0000 C   0  0  0  0  0  0  0  0  0  0  0  0
    6.4302   10.3125    0.0000 O   0  0  0  0  0  0  0  0  0  0  0  0
    7.1447    9.9000    0.0000 C   0  0  0  0  0  0  0  0  0  0  0  0
    7.8592   10.3125    0.0000 C   0  0  0  0  0  0  0  0  0  0  0  0
    8.5737    9.9000    0.0000 C   0  0  0  0  0  0  0  0  0  0  0  0
    8.5737    9.0750    0.0000 C   0  0  0  0  0  0  0  0  0  0  0  0
    9.2881    8.6625    0.0000 S   0  0  0  0  0  0  0  0  0  0  0  0
    9.2881    7.8375    0.0000 C   0  0  0  0  0  0  0  0  0  0  0  0
   10.0026    7.4250    0.0000 C   0  0  0  0  0  0  0  0  0  0  0  0
   10.0026    6.6000    0.0000 C   0  0  0  0  0  0  0  0  0  0  0  0
    9.2881    6.1875    0.0000 C   0  0  0  0  0  0  0  0  0  0  0  0
    8.5737    6.6000    0.0000 C   0  0  0  0  0  0  0  0  0  0  0  0
    8.5737    7.4250    0.0000 C   0  0  0  0  0  0  0  0  0  0  0  0
    7.8592    7.8375    0.0000 N   0  0  0  0  0  0  0  0  0  0  0  0
    7.1447    7.4250    0.0000 C   0  0  0  0  0  0  0  0  0  0  0  0
    6.4302    7.8375    0.0000 O   0  0  0  0  0  0  0  0  0  0  0  0
    7.1447    6.6000    0.0000 N   0  0  0  0  0  0  0  0  0  0  0  0
    6.4302    6.1875    0.0000 C   0  0  0  0  0  0  0  0  0  0  0  0
    6.4302    5.3625    0.0000 C   0  0  0  0  0  0  0  0  0  0  0  0
    5.7158    4.9500    0.0000 O   0  0  0  0  0  0  0  0  0  0  0  0
    5.7158    4.1250    0.0000 C   0  0  0  0  0  0  0  0  0  0  0  0
    6.4302    3.7125    0.0000 O   0  0  0  0  0  0  0  0  0  0  0  0
    5.0013    3.7125    0.0000 N   0  0  0  0  0  0  0  0  0  0  0  0
    5.0013    2.8875    0.0000 C   0  0  0  0  0  0  0  0  0  0  0  0
    5.7158    2.4750    0.0000 C   0  0  0  0  0  0  0  0  0  0  0  0
    5.7158    1.6500    0.0000 C   0  0  0  0  0  0  0  0  0  0  0  0
    5.0013    1.2375    0.0000 C   0  0  0  0  0  0  0  0  0  0  0  0
    4.2868    1.6500    0.0000 C   0  0  0  0  0  0  0  0  0  0  0  0
    4.2868    2.4750    0.0000 C   0  0  0  0  0  0  0  0  0  0  0  0
    7.8592    6.1875    0.0000 C   0  0  0  0  0  0  0  0  0  0  0  0
    7.8592    5.3625    0.0000 C   0  0  0  0  0  0  0  0  0  0  0  0
    8.5737    4.9500    0.0000 O   0  0  0  0  0  0  0  0  0  0  0  0
    8.5737    4.1250    0.0000 C   0  0  0  0  0  0  0  0  0  0  0  0
    7.8592    3.7125    0.0000 O   0  0  0  0  0  0  0  0  0  0  0  0
    9.2881    3.7125    0.0000 N   0  0  0  0  0  0  0  0  0  0  0  0
    9.2881    2.8875    0.0000 C   0  0  0  0  0  0  0  0  0  0  0  0
   10.0026    2.4750    0.0000 C   0  0  0  0  0  0  0  0  0  0  0  0
   10.0026    1.6500    0.0000 C   0  0  0  0  0  0  0  0  0  0  0  0
    9.2881    1.2375    0.0000 C   0  0  0  0  0  0  0  0  0  0  0  0
    8.5737    1.6500    0.0000 C   0  0  0  0  0  0  0  0  0  0  0  0
    8.5737    2.4750    0.0000 C   0  0  0  0  0  0  0  0  0  0  0  0
    7.8592    8.6625    0.0000 C   0  0  0  0  0  0  0  0  0  0  0  0
    7.1447    9.0750    0.0000 C   0  0  0  0  0  0  0  0  0  0  0  0
  1  2  1  0  0  0  0
  2  3  1  0  0  0  0
  3  4  2  0  0  0  0
  3 43  1  0  0  0  0
  4  5  1  0  0  0  0
  5  6  2  0  0  0  0
  6  7  1  0  0  0  0
  6 42  1  0  0  0  0
  7  8  1  0  0  0  0
  8  9  2  0  0  0  0
  8 13  1  0  0  0  0
  9 10  1  0  0  0  0
 10 11  2  0  0  0  0
 11 12  1  0  0  0  0
 12 13  2  0  0  0  0
 13 14  1  0  0  0  0
 14 15  1  0  0  0  0
 14 42  1  0  0  0  0
 15 16  2  0  0  0  0
 15 17  1  0  0  0  0
 17 18  1  0  0  0  0
 17 30  1  0  0  0  0
 18 19  1  0  0  0  0
 19 20  1  0  0  0  0
 20 21  1  0  0  0  0
 21 22  2  0  0  0  0
 21 23  1  0  0  0  0
 23 24  1  0  0  0  0
 24 25  2  0  0  0  0
 24 29  1  0  0  0  0
 25 26  1  0  0  0  0
 26 27  2  0  0  0  0
 27 28  1  0  0  0  0
 28 29  2  0  0  0  0
 30 31  1  0  0  0  0
 31 32  1  0  0  0  0
 32 33  1  0  0  0  0
 33 34  2  0  0  0  0
 33 35  1  0  0  0  0
 35 36  1  0  0  0  0
 36 37  2  0  0  0  0
 36 41  1  0  0  0  0
 37 38  1  0  0  0  0
 38 39  2  0  0  0  0
 39 40  1  0  0  0  0
 40 41  2  0  0  0  0
 42 43  2  0  0  0  0
M  END
$$$$

 OpenBabel12191814062D

 23 25  0  0  0  0  0  0  0  0999 V2000
    0.7145   -2.0625    0.0000 C   0  0  0  0  0  0  0  0  0  0  0  0
    1.4289   -1.6500    0.0000 O   0  0  0  0  0  0  0  0  0  0  0  0
    1.4289   -0.8250    0.0000 C   0  0  0  0  0  0  0  0  0  0  0  0
    0.7145   -0.4125    0.0000 C   0  0  0  0  0  0  0  0  0  0  0  0
    0.7145    0.4125    0.0000 C   0  0  0  0  0  0  0  0  0  0  0  0
    1.4289    0.8250    0.0000 C   0  0  0  0  0  0  0  0  0  0  0  0
    1.4289    1.6500    0.0000 S   0  0  0  0  0  0  0  0  0  0  0  0
    2.1434    2.0625    0.0000 C   0  0  0  0  0  0  0  0  0  0  0  0
    2.1434    2.8875    0.0000 C   0  0  0  0  0  0  0  0  0  0  0  0
    2.8579    3.3000    0.0000 C   0  0  0  0  0  0  0  0  0  0  0  0
    3.5724    2.8875    0.0000 C   0  0  0  0  0  0  0  0  0  0  0  0
    3.5724    2.0625    0.0000 C   0  0  0  0  0  0  0  0  0  0  0  0
    2.8579    1.6500    0.0000 C   0  0  0  0  0  0  0  0  0  0  0  0
    2.8579    0.8250    0.0000 N   0  0  0  0  0  0  0  0  0  0  0  0
    3.5724    0.4125    0.0000 C   0  0  0  0  0  0  0  0  0  0  0  0
    3.5724   -0.4125    0.0000 C   0  0  3  0  0  0  0  0  0  0  0  0
    2.8579   -0.8250    0.0000 C   0  0  0  0  0  0  0  0  0  0  0  0
    4.2868   -0.8250    0.0000 C   0  0  0  0  0  0  0  0  0  0  0  0
    5.0013   -0.4125    0.0000 N   0  0  0  0  0  0  0  0  0  0  0  0
    5.0013    0.4125    0.0000 C   0  0  0  0  0  0  0  0  0  0  0  0
    5.7158   -0.8250    0.0000 C   0  0  0  0  0  0  0  0  0  0  0  0
    2.1434    0.4125    0.0000 C   0  0  0  0  0  0  0  0  0  0  0  0
    2.1434   -0.4125    0.0000 C   0  0  0  0  0  0  0  0  0  0  0  0
  1  2  1  0  0  0  0
  2  3  1  0  0  0  0
  3  4  2  0  0  0  0
  3 23  1  0  0  0  0
  4  5  1  0  0  0  0
  5  6  2  0  0  0  0
  6  7  1  0  0  0  0
  6 22  1  0  0  0  0
  7  8  1  0  0  0  0
  8  9  2  0  0  0  0
  8 13  1  0  0  0  0
  9 10  1  0  0  0  0
 10 11  2  0  0  0  0
 11 12  1  0  0  0  0
 12 13  2  0  0  0  0
 13 14  1  0  0  0  0
 14 15  1  0  0  0  0
 14 22  1  0  0  0  0
 15 16  1  0  0  0  0
 16 17  1  0  0  0  0
 16 18  1  0  0  0  0
 18 19  1  0  0  0  0
 19 20  1  0  0  0  0
 19 21  1  0  0  0  0
 22 23  2  0  0  0  0
M  END
$$$$

 OpenBabel12191814062D

 27 30  0  0  0  0  0  0  0  0999 V2000
    0.0000   -2.4750    0.0000 C   0  0  0  0  0  0  0  0  0  0  0  0
    0.7145   -2.8875    0.0000 O   0  0  0  0  0  0  0  0  0  0  0  0
    1.4289   -2.4750    0.0000 C   0  0  0  0  0  0  0  0  0  0  0  0
    1.4289   -1.6500    0.0000 C   0  0  0  0  0  0  0  0  0  0  0  0
    2.1434   -1.2375    0.0000 C   0  0  0  0  0  0  0  0  0  0  0  0
    2.8579   -1.6500    0.0000 C   0  0  0  0  0  0  0  0  0  0  0  0
    3.5724   -1.2375    0.0000 S   0  0  0  0  0  0  0  0  0  0  0  0
    4.2868   -1.6500    0.0000 C   0  0  0  0  0  0  0  0  0  0  0  0
    5.0013   -1.2375    0.0000 C   0  0  0  0  0  0  0  0  0  0  0  0
    5.7158   -1.6500    0.0000 C   0  0  0  0  0  0  0  0  0  0  0  0
    5.7158   -2.4750    0.0000 C   0  0  0  0  0  0  0  0  0  0  0  0
    5.0013   -2.8875    0.0000 C   0  0  0  0  0  0  0  0  0  0  0  0
    4.2868   -2.4750    0.0000 C   0  0  0  0  0  0  0  0  0  0  0  0
    3.5724   -2.8875    0.0000 N   0  0  0  0  0  0  0  0  0  0  0  0
    3.5724   -3.7125    0.0000 C   0  0  0  0  0  0  0  0  0  0  0  0
    2.8579   -4.1250    0.0000 C   0  0  3  0  0  0  0  0  0  0  0  0
    2.1434   -3.7125    0.0000 C   0  0  0  0  0  0  0  0  0  0  0  0
    2.8579   -4.9500    0.0000 C   0  0  0  0  0  0  0  0  0  0  0  0
    2.1434   -5.3625    0.0000 N   0  0  0  0  0  0  0  0  0  0  0  0
    2.1434   -6.1875    0.0000 C   0  0  0  0  0  0  0  0  0  0  0  0
    1.4289   -6.6000    0.0000 C   0  0  0  0  0  0  0  0  0  0  0  0
    0.7145   -6.1875    0.0000 C   0  0  3  0  0  0  0  0  0  0  0  0
    0.0000   -6.6000    0.0000 O   0  0  0  0  0  0  0  0  0  0  0  0
    0.7145   -5.3625    0.0000 C   0  0  0  0  0  0  0  0  0  0  0  0
    1.4289   -4.9500    0.0000 C   0  0  0  0  0  0  0  0  0  0  0  0
    2.8579   -2.4750    0.0000 C   0  0  0  0  0  0  0  0  0  0  0  0
    2.1434   -2.8875    0.0000 C   0  0  0  0  0  0  0  0  0  0  0  0
  1  2  1  0  0  0  0
  2  3  1  0  0  0  0
  3  4  2  0  0  0  0
  3 27  1  0  0  0  0
  4  5  1  0  0  0  0
  5  6  2  0  0  0  0
  6  7  1  0  0  0  0
  6 26  1  0  0  0  0
  7  8  1  0  0  0  0
  8  9  2  0  0  0  0
  8 13  1  0  0  0  0
  9 10  1  0  0  0  0
 10 11  2  0  0  0  0
 11 12  1  0  0  0  0
 12 13  2  0  0  0  0
 13 14  1  0  0  0  0
 14 15  1  0  0  0  0
 14 26  1  0  0  0  0
 15 16  1  0  0  0  0
 16 17  1  0  0  0  0
 16 18  1  0  0  0  0
 18 19  1  0  0  0  0
 19 20  1  0  0  0  0
 19 25  1  0  0  0  0
 20 21  1  0  0  0  0
 21 22  1  0  0  0  0
 22 23  1  0  0  0  0
 22 24  1  0  0  0  0
 24 25  1  0  0  0  0
 26 27  2  0  0  0  0
M  END
$$$$

 OpenBabel12191814062D

 30 33  0  0  0  0  0  0  0  0999 V2000
   -0.9373   -1.5316    0.0000 C   0  0  0  0  0  0  0  0  0  0  0  0
   -0.2228   -1.9441    0.0000 O   0  0  0  0  0  0  0  0  0  0  0  0
    0.4917   -1.5316    0.0000 C   0  0  0  0  0  0  0  0  0  0  0  0
    0.4917   -0.7066    0.0000 C   0  0  0  0  0  0  0  0  0  0  0  0
    1.2062   -0.2941    0.0000 C   0  0  0  0  0  0  0  0  0  0  0  0
    1.9206   -0.7066    0.0000 C   0  0  0  0  0  0  0  0  0  0  0  0
    2.5656   -0.1923    0.0000 S   0  0  0  0  0  0  0  0  0  0  0  0
    3.3700   -0.3758    0.0000 C   0  0  0  0  0  0  0  0  0  0  0  0
    3.7279   -1.1191    0.0000 C   0  0  0  0  0  0  0  0  0  0  0  0
    3.3700   -1.8624    0.0000 N   0  0  0  0  0  0  0  0  0  0  0  0
    2.5656   -2.0460    0.0000 C   0  0  0  0  0  0  0  0  0  0  0  0
    1.9206   -1.5316    0.0000 C   0  0  0  0  0  0  0  0  0  0  0  0
    1.2062   -1.9441    0.0000 C   0  0  0  0  0  0  0  0  0  0  0  0
    3.8843   -2.5075    0.0000 C   0  0  0  0  0  0  0  0  0  0  0  0
    4.7001   -2.3845    0.0000 O   0  0  0  0  0  0  0  0  0  0  0  0
    3.5829   -3.2754    0.0000 C   0  0  0  0  0  0  0  0  0  0  0  0
    4.0973   -3.9204    0.0000 C   0  0  0  0  0  0  0  0  0  0  0  0
    3.7959   -4.6884    0.0000 N   0  0  0  0  0  0  0  0  0  0  0  0
    4.3103   -5.3334    0.0000 C   0  0  0  0  0  0  0  0  0  0  0  0
    4.0089   -6.1014    0.0000 C   0  0  0  0  0  0  0  0  0  0  0  0
    3.1931   -6.2244    0.0000 C   0  0  0  0  0  0  0  0  0  0  0  0
    2.8917   -6.9923    0.0000 C   0  0  0  0  0  0  0  0  0  0  0  0
    3.4061   -7.6373    0.0000 C   0  0  0  0  0  0  0  0  0  0  0  0
    4.2218   -7.5144    0.0000 C   0  0  0  0  0  0  0  0  0  0  0  0
    4.7362   -8.1594    0.0000 C   0  0  0  0  0  0  0  0  0  0  0  0
    4.4348   -8.9274    0.0000 C   0  0  0  0  0  0  0  0  0  0  0  0
    3.6190   -9.0503    0.0000 C   0  0  0  0  0  0  0  0  0  0  0  0
    3.1047   -8.4053    0.0000 C   0  0  0  0  0  0  0  0  0  0  0  0
    2.6787   -5.5793    0.0000 C   0  0  0  0  0  0  0  0  0  0  0  0
    2.9801   -4.8114    0.0000 C   0  0  0  0  0  0  0  0  0  0  0  0
  1  2  1  0  0  0  0
  2  3  1  0  0  0  0
  3  4  2  0  0  0  0
  3 13  1  0  0  0  0
  4  5  1  0  0  0  0
  5  6  2  0  0  0  0
  6  7  1  0  0  0  0
  6 12  1  0  0  0  0
  7  8  1  0  0  0  0
  8  9  1  0  0  0  0
  9 10  1  0  0  0  0
 10 11  1  0  0  0  0
 10 14  1  0  0  0  0
 11 12  1  0  0  0  0
 12 13  2  0  0  0  0
 14 15  2  0  0  0  0
 14 16  1  0  0  0  0
 16 17  1  0  0  0  0
 17 18  1  0  0  0  0
 18 19  1  0  0  0  0
 18 30  1  0  0  0  0
 19 20  1  0  0  0  0
 20 21  1  0  0  0  0
 21 22  1  0  0  0  0
 21 29  1  0  0  0  0
 22 23  1  0  0  0  0
 23 24  2  0  0  0  0
 23 28  1  0  0  0  0
 24 25  1  0  0  0  0
 25 26  2  0  0  0  0
 26 27  1  0  0  0  0
 27 28  2  0  0  0  0
 29 30  1  0  0  0  0
M  END
$$$$

 OpenBabel12191814062D

 29 31  0  0  0  0  0  0  0  0999 V2000
   -0.7145   -1.2375    0.0000 C   0  0  0  0  0  0  0  0  0  0  0  0
   -0.7145   -2.0625    0.0000 O   0  0  0  0  0  0  0  0  0  0  0  0
    0.0000   -2.4750    0.0000 C   0  0  0  0  0  0  0  0  0  0  0  0
    0.7145   -2.0625    0.0000 C   0  0  0  0  0  0  0  0  0  0  0  0
    1.4289   -2.4750    0.0000 C   0  0  0  0  0  0  0  0  0  0  0  0
    1.4289   -3.3000    0.0000 C   0  0  0  0  0  0  0  0  0  0  0  0
    0.7145   -3.7125    0.0000 C   0  0  0  0  0  0  0  0  0  0  0  0
    0.7145   -4.5375    0.0000 C   0  0  0  0  0  0  0  0  0  0  0  0
    1.4289   -4.9500    0.0000 N   0  0  0  0  0  0  0  0  0  0  0  0
    2.1434   -4.5375    0.0000 O   0  0  0  0  0  0  0  0  0  0  0  0
    2.1434   -3.7125    0.0000 C   0  0  0  0  0  0  0  0  0  0  0  0
    2.8579   -3.3000    0.0000 C   0  0  3  0  0  0  0  0  0  0  0  0
    2.8579   -2.4750    0.0000 O   0  0  0  0  0  0  0  0  0  0  0  0
    3.5724   -3.7125    0.0000 C   0  0  0  0  0  0  0  0  0  0  0  0
    3.5724   -4.5375    0.0000 N   0  0  0  0  0  0  0  0  0  0  0  0
    4.2868   -4.9500    0.0000 C   0  0  0  0  0  0  0  0  0  0  0  0
    4.2868   -5.7750    0.0000 C   0  0  0  0  0  0  0  0  0  0  0  0
    3.5724   -6.1875    0.0000 N   0  0  0  0  0  0  0  0  0  0  0  0
    2.8579   -5.7750    0.0000 C   0  0  0  0  0  0  0  0  0  0  0  0
    2.8579   -4.9500    0.0000 C   0  0  0  0  0  0  0  0  0  0  0  0
    3.5724   -7.0125    0.0000 C   0  0  0  0  0  0  0  0  0  0  0  0
    4.2868   -7.4250    0.0000 C   0  0  0  0  0  0  0  0  0  0  0  0
    4.2868   -8.2500    0.0000 C   0  0  0  0  0  0  0  0  0  0  0  0
    3.5724   -8.6625    0.0000 C   0  0  0  0  0  0  0  0  0  0  0  0
    2.8579   -8.2500    0.0000 C   0  0  0  0  0  0  0  0  0  0  0  0
    2.8579   -7.4250    0.0000 C   0  0  0  0  0  0  0  0  0  0  0  0
    2.1434   -7.0125    0.0000 O   0  0  0  0  0  0  0  0  0  0  0  0
    2.1434   -6.1875    0.0000 C   0  0  0  0  0  0  0  0  0  0  0  0
    0.0000   -3.3000    0.0000 C   0  0  0  0  0  0  0  0  0  0  0  0
  1  2  1  0  0  0  0
  2  3  1  0  0  0  0
  3  4  2  0  0  0  0
  3 29  1  0  0  0  0
  4  5  1  0  0  0  0
  5  6  2  0  0  0  0
  6  7  1  0  0  0  0
  7  8  1  0  0  0  0
  7 29  2  0  0  0  0
  8  9  2  0  0  0  0
  9 10  1  0  0  0  0
 10 11  1  0  0  0  0
 11 12  1  0  0  0  0
 12 13  1  0  0  0  0
 12 14  1  0  0  0  0
 14 15  1  0  0  0  0
 15 16  1  0  0  0  0
 15 20  1  0  0  0  0
 16 17  1  0  0  0  0
 17 18  1  0  0  0  0
 18 19  1  0  0  0  0
 18 21  1  0  0  0  0
 19 20  1  0  0  0  0
 21 22  2  0  0  0  0
 21 26  1  0  0  0  0
 22 23  1  0  0  0  0
 23 24  2  0  0  0  0
 24 25  1  0  0  0  0
 25 26  2  0  0  0  0
 26 27  1  0  0  0  0
 27 28  1  0  0  0  0
M  END
$$$$

 OpenBabel12191814062D

 42 46  0  0  0  0  0  0  0  0999 V2000
    0.7145   -7.8375    0.0000 C   0  0  0  0  0  0  0  0  0  0  0  0
    0.0000   -7.4250    0.0000 O   0  0  0  0  0  0  0  0  0  0  0  0
   -0.7145   -7.8375    0.0000 C   0  0  0  0  0  0  0  0  0  0  0  0
   -0.7145   -8.6625    0.0000 C   0  0  0  0  0  0  0  0  0  0  0  0
   -1.4289   -9.0750    0.0000 C   0  0  0  0  0  0  0  0  0  0  0  0
   -2.1434   -8.6625    0.0000 C   0  0  0  0  0  0  0  0  0  0  0  0
   -2.1434   -7.8375    0.0000 C   0  0  0  0  0  0  0  0  0  0  0  0
   -1.4289   -7.4250    0.0000 C   0  0  0  0  0  0  0  0  0  0  0  0
   -2.8579   -7.4250    0.0000 C   0  0  0  0  0  0  0  0  0  0  0  0
   -3.5724   -7.8375    0.0000 O   0  0  0  0  0  0  0  0  0  0  0  0
   -2.8579   -6.6000    0.0000 N   0  0  0  0  0  0  0  0  0  0  0  0
   -3.5724   -6.1875    0.0000 C   0  0  0  0  0  0  0  0  0  0  0  0
   -4.2868   -6.6000    0.0000 C   0  0  0  0  0  0  0  0  0  0  0  0
   -5.0013   -6.1875    0.0000 C   0  0  0  0  0  0  0  0  0  0  0  0
   -5.0013   -5.3625    0.0000 C   0  0  0  0  0  0  0  0  0  0  0  0
   -4.2868   -4.9500    0.0000 C   0  0  0  0  0  0  0  0  0  0  0  0
   -3.5724   -5.3625    0.0000 C   0  0  0  0  0  0  0  0  0  0  0  0
   -2.8579   -4.9500    0.0000 C   0  0  0  0  0  0  0  0  0  0  0  0
   -2.1434   -5.3625    0.0000 O   0  0  0  0  0  0  0  0  0  0  0  0
   -2.8579   -4.1250    0.0000 N   0  0  0  0  0  0  0  0  0  0  0  0
   -2.1434   -3.7125    0.0000 C   0  0  0  0  0  0  0  0  0  0  0  0
   -2.1434   -2.8875    0.0000 C   0  0  0  0  0  0  0  0  0  0  0  0
   -1.4289   -2.4750    0.0000 C   0  0  0  0  0  0  0  0  0  0  0  0
   -0.7145   -2.8875    0.0000 C   0  0  0  0  0  0  0  0  0  0  0  0
    0.0000   -2.4750    0.0000 C   0  0  0  0  0  0  0  0  0  0  0  0
    0.0000   -1.6500    0.0000 C   0  0  0  0  0  0  0  0  0  0  0  0
    0.7145   -1.2375    0.0000 N   0  0  0  0  0  0  0  0  0  0  0  0
    0.7145   -0.4125    0.0000 C   0  0  0  0  0  0  0  0  0  0  0  0
    1.4289    0.0000    0.0000 C   0  0  0  0  0  0  0  0  0  0  0  0
    2.1434   -0.4125    0.0000 C   0  0  0  0  0  0  0  0  0  0  0  0
    2.8579    0.0000    0.0000 C   0  0  0  0  0  0  0  0  0  0  0  0
    3.5724   -0.4125    0.0000 C   0  0  0  0  0  0  0  0  0  0  0  0
    4.2868   -0.0000    0.0000 O   0  0  0  0  0  0  0  0  0  0  0  0
    4.2868    0.8250    0.0000 C   0  0  0  0  0  0  0  0  0  0  0  0
    3.5724   -1.2375    0.0000 C   0  0  0  0  0  0  0  0  0  0  0  0
    4.2868   -1.6500    0.0000 O   0  0  0  0  0  0  0  0  0  0  0  0
    4.2868   -2.4750    0.0000 C   0  0  0  0  0  0  0  0  0  0  0  0
    2.8579   -1.6500    0.0000 C   0  0  0  0  0  0  0  0  0  0  0  0
    2.1434   -1.2375    0.0000 C   0  0  0  0  0  0  0  0  0  0  0  0
    1.4289   -1.6500    0.0000 C   0  0  0  0  0  0  0  0  0  0  0  0
   -0.7145   -3.7125    0.0000 C   0  0  0  0  0  0  0  0  0  0  0  0
   -1.4289   -4.1250    0.0000 C   0  0  0  0  0  0  0  0  0  0  0  0
  1  2  1  0  0  0  0
  2  3  1  0  0  0  0
  3  4  2  0  0  0  0
  3  8  1  0  0  0  0
  4  5  1  0  0  0  0
  5  6  2  0  0  0  0
  6  7  1  0  0  0  0
  7  8  2  0  0  0  0
  7  9  1  0  0  0  0
  9 10  2  0  0  0  0
  9 11  1  0  0  0  0
 11 12  1  0  0  0  0
 12 13  2  0  0  0  0
 12 17  1  0  0  0  0
 13 14  1  0  0  0  0
 14 15  2  0  0  0  0
 15 16  1  0  0  0  0
 16 17  2  0  0  0  0
 17 18  1  0  0  0  0
 18 19  2  0  0  0  0
 18 20  1  0  0  0  0
 20 21  1  0  0  0  0
 21 22  2  0  0  0  0
 21 42  1  0  0  0  0
 22 23  1  0  0  0  0
 23 24  2  0  0  0  0
 24 25  1  0  0  0  0
 24 41  1  0  0  0  0
 25 26  1  0  0  0  0
 26 27  1  0  0  0  0
 27 28  1  0  0  0  0
 27 40  1  0  0  0  0
 28 29  1  0  0  0  0
 29 30  1  0  0  0  0
 30 31  2  0  0  0  0
 30 39  1  0  0  0  0
 31 32  1  0  0  0  0
 32 33  1  0  0  0  0
 32 35  2  0  0  0  0
 33 34  1  0  0  0  0
 35 36  1  0  0  0  0
 35 38  1  0  0  0  0
 36 37  1  0  0  0  0
 38 39  2  0  0  0  0
 39 40  1  0  0  0  0
 41 42  2  0  0  0  0
M  END
$$$$

 OpenBabel12191814062D

 34 38  0  0  0  0  0  0  0  0999 V2000
   -6.3587   -1.4124    0.0000 C   0  0  0  0  0  0  0  0  0  0  0  0
   -5.5337   -1.4124    0.0000 O   0  0  0  0  0  0  0  0  0  0  0  0
   -5.1212   -0.6979    0.0000 C   0  0  0  0  0  0  0  0  0  0  0  0
   -5.5337    0.0165    0.0000 C   0  0  0  0  0  0  0  0  0  0  0  0
   -5.1212    0.7310    0.0000 C   0  0  0  0  0  0  0  0  0  0  0  0
   -4.2962    0.7310    0.0000 C   0  0  0  0  0  0  0  0  0  0  0  0
   -3.8837    0.0165    0.0000 C   0  0  0  0  0  0  0  0  0  0  0  0
   -4.2962   -0.6979    0.0000 C   0  0  0  0  0  0  0  0  0  0  0  0
   -3.0587    0.0165    0.0000 N   0  0  0  0  0  0  0  0  0  0  0  0
   -2.6462    0.7310    0.0000 C   0  0  0  0  0  0  0  0  0  0  0  0
   -1.8212    0.7310    0.0000 C   0  0  0  0  0  0  0  0  0  0  0  0
   -1.4087    0.0165    0.0000 N   0  0  0  0  0  0  0  0  0  0  0  0
   -0.5837    0.0165    0.0000 C   0  0  0  0  0  0  0  0  0  0  0  0
   -0.1712   -0.6979    0.0000 C   0  0  3  0  0  0  0  0  0  0  0  0
   -0.5837   -1.4124    0.0000 O   0  0  0  0  0  0  0  0  0  0  0  0
    0.6538   -0.6979    0.0000 C   0  0  0  0  0  0  0  0  0  0  0  0
    1.1387   -0.0305    0.0000 O   0  0  0  0  0  0  0  0  0  0  0  0
    1.9233   -0.2854    0.0000 C   0  0  0  0  0  0  0  0  0  0  0  0
    2.6378    0.1271    0.0000 C   0  0  0  0  0  0  0  0  0  0  0  0
    3.3523   -0.2854    0.0000 C   0  0  0  0  0  0  0  0  0  0  0  0
    3.3523   -1.1104    0.0000 C   0  0  0  0  0  0  0  0  0  0  0  0
    2.6378   -1.5229    0.0000 C   0  0  0  0  0  0  0  0  0  0  0  0
    1.9233   -1.1104    0.0000 C   0  0  0  0  0  0  0  0  0  0  0  0
    1.1387   -1.3654    0.0000 C   0  0  0  0  0  0  0  0  0  0  0  0
    0.8838   -2.1500    0.0000 C   0  0  0  0  0  0  0  0  0  0  0  0
    1.4358   -2.7631    0.0000 C   0  0  0  0  0  0  0  0  0  0  0  0
    1.1809   -3.5477    0.0000 C   0  0  0  0  0  0  0  0  0  0  0  0
    1.7329   -4.1608    0.0000 C   0  0  0  0  0  0  0  0  0  0  0  0
    1.4780   -4.9454    0.0000 C   0  0  0  0  0  0  0  0  0  0  0  0
    0.6710   -5.1170    0.0000 C   0  0  0  0  0  0  0  0  0  0  0  0
    0.1190   -4.5039    0.0000 C   0  0  0  0  0  0  0  0  0  0  0  0
    0.3739   -3.7192    0.0000 C   0  0  0  0  0  0  0  0  0  0  0  0
   -1.8212   -0.6979    0.0000 C   0  0  0  0  0  0  0  0  0  0  0  0
   -2.6462   -0.6979    0.0000 C   0  0  0  0  0  0  0  0  0  0  0  0
  1  2  1  0  0  0  0
  2  3  1  0  0  0  0
  3  4  2  0  0  0  0
  3  8  1  0  0  0  0
  4  5  1  0  0  0  0
  5  6  2  0  0  0  0
  6  7  1  0  0  0  0
  7  8  2  0  0  0  0
  7  9  1  0  0  0  0
  9 10  1  0  0  0  0
  9 34  1  0  0  0  0
 10 11  1  0  0  0  0
 11 12  1  0  0  0  0
 12 13  1  0  0  0  0
 12 33  1  0  0  0  0
 13 14  1  0  0  0  0
 14 15  1  0  0  0  0
 14 16  1  0  0  0  0
 16 17  1  0  0  0  0
 16 24  2  0  0  0  0
 17 18  1  0  0  0  0
 18 19  2  0  0  0  0
 18 23  1  0  0  0  0
 19 20  1  0  0  0  0
 20 21  2  0  0  0  0
 21 22  1  0  0  0  0
 22 23  2  0  0  0  0
 23 24  1  0  0  0  0
 24 25  1  0  0  0  0
 25 26  1  0  0  0  0
 26 27  1  0  0  0  0
 27 28  2  0  0  0  0
 27 32  1  0  0  0  0
 28 29  1  0  0  0  0
 29 30  2  0  0  0  0
 30 31  1  0  0  0  0
 31 32  2  0  0  0  0
 33 34  1  0  0  0  0
M  END
$$$$

 OpenBabel12191814062D

 35 38  0  0  0  0  0  0  0  0999 V2000
    4.2868   -4.9500    0.0000 C   0  0  0  0  0  0  0  0  0  0  0  0
    3.5724   -5.3625    0.0000 O   0  0  0  0  0  0  0  0  0  0  0  0
    3.5724   -6.1875    0.0000 C   0  0  0  0  0  0  0  0  0  0  0  0
    4.2868   -6.6000    0.0000 C   0  0  0  0  0  0  0  0  0  0  0  0
    4.2868   -7.4250    0.0000 C   0  0  0  0  0  0  0  0  0  0  0  0
    3.5724   -7.8375    0.0000 C   0  0  0  0  0  0  0  0  0  0  0  0
    2.8579   -7.4250    0.0000 C   0  0  0  0  0  0  0  0  0  0  0  0
    2.8579   -6.6000    0.0000 C   0  0  0  0  0  0  0  0  0  0  0  0
    2.1434   -7.8375    0.0000 N   0  0  0  0  0  0  0  0  0  0  0  0
    2.1434   -8.6625    0.0000 C   0  0  0  0  0  0  0  0  0  0  0  0
    1.4289   -9.0750    0.0000 C   0  0  0  0  0  0  0  0  0  0  0  0
    0.7145   -8.6625    0.0000 N   0  0  0  0  0  0  0  0  0  0  0  0
   -0.0000   -9.0750    0.0000 C   0  0  0  0  0  0  0  0  0  0  0  0
   -0.7145   -8.6625    0.0000 C   0  0  3  0  0  0  0  0  0  0  0  0
   -0.7145   -7.8375    0.0000 O   0  0  0  0  0  0  0  0  0  0  0  0
   -1.4289   -9.0750    0.0000 C   0  0  0  0  0  0  0  0  0  0  0  0
   -2.1434   -8.6625    0.0000 O   0  0  0  0  0  0  0  0  0  0  0  0
   -2.8579   -9.0750    0.0000 C   0  0  0  0  0  0  0  0  0  0  0  0
   -2.8579   -9.9000    0.0000 C   0  0  0  0  0  0  0  0  0  0  0  0
   -3.5724  -10.3125    0.0000 C   0  0  0  0  0  0  0  0  0  0  0  0
   -4.2868   -9.9000    0.0000 C   0  0  0  0  0  0  0  0  0  0  0  0
   -4.2868   -9.0750    0.0000 C   0  0  0  0  0  0  0  0  0  0  0  0
   -3.5724   -8.6625    0.0000 C   0  0  0  0  0  0  0  0  0  0  0  0
   -3.5724   -7.8375    0.0000 C   0  0  0  0  0  0  0  0  0  0  0  0
   -4.2868   -7.4250    0.0000 O   0  0  0  0  0  0  0  0  0  0  0  0
   -2.8579   -7.4250    0.0000 C   0  0  0  0  0  0  0  0  0  0  0  0
   -2.8579   -6.6000    0.0000 C   0  0  0  0  0  0  0  0  0  0  0  0
   -3.5724   -6.1875    0.0000 C   0  0  0  0  0  0  0  0  0  0  0  0
   -4.2868   -6.6000    0.0000 C   0  0  0  0  0  0  0  0  0  0  0  0
   -5.0013   -6.1875    0.0000 C   0  0  0  0  0  0  0  0  0  0  0  0
   -5.0013   -5.3625    0.0000 C   0  0  0  0  0  0  0  0  0  0  0  0
   -4.2868   -4.9500    0.0000 C   0  0  0  0  0  0  0  0  0  0  0  0
   -3.5724   -5.3625    0.0000 C   0  0  0  0  0  0  0  0  0  0  0  0
    0.7145   -7.8375    0.0000 C   0  0  0  0  0  0  0  0  0  0  0  0
    1.4289   -7.4250    0.0000 C   0  0  0  0  0  0  0  0  0  0  0  0
  1  2  1  0  0  0  0
  2  3  1  0  0  0  0
  3  4  2  0  0  0  0
  3  8  1  0  0  0  0
  4  5  1  0  0  0  0
  5  6  2  0  0  0  0
  6  7  1  0  0  0  0
  7  8  2  0  0  0  0
  7  9  1  0  0  0  0
  9 10  1  0  0  0  0
  9 35  1  0  0  0  0
 10 11  1  0  0  0  0
 11 12  1  0  0  0  0
 12 13  1  0  0  0  0
 12 34  1  0  0  0  0
 13 14  1  0  0  0  0
 14 15  1  0  0  0  0
 14 16  1  0  0  0  0
 16 17  1  0  0  0  0
 17 18  1  0  0  0  0
 18 19  2  0  0  0  0
 18 23  1  0  0  0  0
 19 20  1  0  0  0  0
 20 21  2  0  0  0  0
 21 22  1  0  0  0  0
 22 23  2  0  0  0  0
 23 24  1  0  0  0  0
 24 25  2  0  0  0  0
 24 26  1  0  0  0  0
 26 27  1  0  0  0  0
 27 28  1  0  0  0  0
 28 29  2  0  0  0  0
 28 33  1  0  0  0  0
 29 30  1  0  0  0  0
 30 31  2  0  0  0  0
 31 32  1  0  0  0  0
 32 33  2  0  0  0  0
 34 35  1  0  0  0  0
M  END
$$$$

 OpenBabel12191814062D

 28 30  0  0  0  0  0  0  0  0999 V2000
    5.7158    0.0000    0.0000 C   0  0  0  0  0  0  0  0  0  0  0  0
    5.0013   -0.4125    0.0000 O   0  0  0  0  0  0  0  0  0  0  0  0
    5.0013   -1.2375    0.0000 C   0  0  0  0  0  0  0  0  0  0  0  0
    5.7158   -1.6500    0.0000 C   0  0  0  0  0  0  0  0  0  0  0  0
    5.7158   -2.4750    0.0000 C   0  0  0  0  0  0  0  0  0  0  0  0
    5.0013   -2.8875    0.0000 C   0  0  0  0  0  0  0  0  0  0  0  0
    4.2868   -2.4750    0.0000 C   0  0  0  0  0  0  0  0  0  0  0  0
    3.5724   -2.8875    0.0000 C   0  0  0  0  0  0  0  0  0  0  0  0
    2.8579   -2.4750    0.0000 C   0  0  0  0  0  0  0  0  0  0  0  0
    2.1434   -2.8875    0.0000 C   0  0  0  0  0  0  0  0  0  0  0  0
    2.1434   -3.7125    0.0000 C   0  0  0  0  0  0  0  0  0  0  0  0
    1.4289   -4.1250    0.0000 C   0  0  0  0  0  0  0  0  0  0  0  0
    0.7145   -3.7125    0.0000 C   0  0  0  0  0  0  0  0  0  0  0  0
    0.7145   -2.8875    0.0000 C   0  0  0  0  0  0  0  0  0  0  0  0
    1.4289   -2.4750    0.0000 C   0  0  0  0  0  0  0  0  0  0  0  0
    1.4289   -1.6500    0.0000 N   0  0  0  0  0  0  0  0  0  0  0  0
    0.7145   -1.2375    0.0000 C   0  0  0  0  0  0  0  0  0  0  0  0
    0.7145   -0.4125    0.0000 C   0  0  0  0  0  0  0  0  0  0  0  0
    0.0000    0.0000    0.0000 C   0  0  0  0  0  0  0  0  0  0  0  0
    0.0000    0.8250    0.0000 C   0  0  0  0  0  0  0  0  0  0  0  0
   -0.7145    1.2375    0.0000 O   0  0  0  0  0  0  0  0  0  0  0  0
   -0.7145    2.0625    0.0000 C   0  0  0  0  0  0  0  0  0  0  0  0
    0.7145    1.2375    0.0000 C   0  0  0  0  0  0  0  0  0  0  0  0
    1.4289    0.8250    0.0000 C   0  0  0  0  0  0  0  0  0  0  0  0
    2.1434    1.2375    0.0000 O   0  0  0  0  0  0  0  0  0  0  0  0
    2.8579    0.8250    0.0000 C   0  0  0  0  0  0  0  0  0  0  0  0
    1.4289    0.0000    0.0000 C   0  0  0  0  0  0  0  0  0  0  0  0
    4.2868   -1.6500    0.0000 C   0  0  0  0  0  0  0  0  0  0  0  0
  1  2  1  0  0  0  0
  2  3  1  0  0  0  0
  3  4  2  0  0  0  0
  3 28  1  0  0  0  0
  4  5  1  0  0  0  0
  5  6  2  0  0  0  0
  6  7  1  0  0  0  0
  7  8  1  0  0  0  0
  7 28  2  0  0  0  0
  8  9  1  0  0  0  0
  9 10  1  0  0  0  0
 10 11  2  0  0  0  0
 10 15  1  0  0  0  0
 11 12  1  0  0  0  0
 12 13  2  0  0  0  0
 13 14  1  0  0  0  0
 14 15  2  0  0  0  0
 15 16  1  0  0  0  0
 16 17  1  0  0  0  0
 17 18  1  0  0  0  0
 18 19  2  0  0  0  0
 18 27  1  0  0  0  0
 19 20  1  0  0  0  0
 20 21  1  0  0  0  0
 20 23  2  0  0  0  0
 21 22  1  0  0  0  0
 23 24  1  0  0  0  0
 24 25  1  0  0  0  0
 24 27  2  0  0  0  0
 25 26  1  0  0  0  0
M  END
$$$$

 OpenBabel12191814062D

 28 30  0  0  0  0  0  0  0  0999 V2000
    4.2868   -2.4750    0.0000 C   0  0  0  0  0  0  0  0  0  0  0  0
    3.5724   -2.8875    0.0000 O   0  0  0  0  0  0  0  0  0  0  0  0
    3.5724   -3.7125    0.0000 C   0  0  0  0  0  0  0  0  0  0  0  0
    4.2868   -4.1250    0.0000 C   0  0  0  0  0  0  0  0  0  0  0  0
    4.2868   -4.9500    0.0000 C   0  0  0  0  0  0  0  0  0  0  0  0
    3.5724   -5.3625    0.0000 C   0  0  0  0  0  0  0  0  0  0  0  0
    2.8579   -4.9500    0.0000 C   0  0  0  0  0  0  0  0  0  0  0  0
    2.1434   -5.3625    0.0000 C   0  0  0  0  0  0  0  0  0  0  0  0
    2.1434   -6.1875    0.0000 C   0  0  0  0  0  0  0  0  0  0  0  0
    2.8579   -6.6000    0.0000 C   0  0  0  0  0  0  0  0  0  0  0  0
    3.5724   -6.1875    0.0000 C   0  0  0  0  0  0  0  0  0  0  0  0
    4.2868   -6.6000    0.0000 C   0  0  0  0  0  0  0  0  0  0  0  0
    4.2868   -7.4250    0.0000 C   0  0  0  0  0  0  0  0  0  0  0  0
    3.5724   -7.8375    0.0000 C   0  0  0  0  0  0  0  0  0  0  0  0
    2.8579   -7.4250    0.0000 C   0  0  0  0  0  0  0  0  0  0  0  0
    2.1434   -7.8375    0.0000 N   0  0  0  0  0  0  0  0  0  0  0  0
    2.1434   -8.6625    0.0000 C   0  0  0  0  0  0  0  0  0  0  0  0
    1.4289   -9.0750    0.0000 C   0  0  0  0  0  0  0  0  0  0  0  0
    1.4289   -9.9000    0.0000 C   0  0  0  0  0  0  0  0  0  0  0  0
    0.7145  -10.3125    0.0000 C   0  0  0  0  0  0  0  0  0  0  0  0
   -0.0000   -9.9000    0.0000 C   0  0  0  0  0  0  0  0  0  0  0  0
   -0.7145  -10.3125    0.0000 O   0  0  0  0  0  0  0  0  0  0  0  0
   -0.7145  -11.1375    0.0000 C   0  0  0  0  0  0  0  0  0  0  0  0
   -0.0000   -9.0750    0.0000 C   0  0  0  0  0  0  0  0  0  0  0  0
   -0.7145   -8.6625    0.0000 O   0  0  0  0  0  0  0  0  0  0  0  0
   -0.7145   -7.8375    0.0000 C   0  0  0  0  0  0  0  0  0  0  0  0
    0.7145   -8.6625    0.0000 C   0  0  0  0  0  0  0  0  0  0  0  0
    2.8579   -4.1250    0.0000 C   0  0  0  0  0  0  0  0  0  0  0  0
  1  2  1  0  0  0  0
  2  3  1  0  0  0  0
  3  4  2  0  0  0  0
  3 28  1  0  0  0  0
  4  5  1  0  0  0  0
  5  6  2  0  0  0  0
  6  7  1  0  0  0  0
  7  8  1  0  0  0  0
  7 28  2  0  0  0  0
  8  9  1  0  0  0  0
  9 10  1  0  0  0  0
 10 11  2  0  0  0  0
 10 15  1  0  0  0  0
 11 12  1  0  0  0  0
 12 13  2  0  0  0  0
 13 14  1  0  0  0  0
 14 15  2  0  0  0  0
 15 16  1  0  0  0  0
 16 17  1  0  0  0  0
 17 18  1  0  0  0  0
 18 19  2  0  0  0  0
 18 27  1  0  0  0  0
 19 20  1  0  0  0  0
 20 21  2  0  0  0  0
 21 22  1  0  0  0  0
 21 24  1  0  0  0  0
 22 23  1  0  0  0  0
 24 25  1  0  0  0  0
 24 27  2  0  0  0  0
 25 26  1  0  0  0  0
M  END
$$$$

 OpenBabel12191814062D

 26 28  0  0  0  0  0  0  0  0999 V2000
   -1.4289   -2.4750    0.0000 C   0  0  0  0  0  0  0  0  0  0  0  0
   -2.1434   -2.8875    0.0000 O   0  0  0  0  0  0  0  0  0  0  0  0
   -2.1434   -3.7125    0.0000 C   0  0  0  0  0  0  0  0  0  0  0  0
   -1.4289   -4.1250    0.0000 C   0  0  0  0  0  0  0  0  0  0  0  0
   -1.4289   -4.9500    0.0000 C   0  0  0  0  0  0  0  0  0  0  0  0
   -2.1434   -5.3625    0.0000 C   0  0  0  0  0  0  0  0  0  0  0  0
   -2.8579   -4.9500    0.0000 C   0  0  0  0  0  0  0  0  0  0  0  0
   -3.5724   -5.3625    0.0000 C   0  0  0  0  0  0  0  0  0  0  0  0
   -4.2868   -4.9500    0.0000 C   0  0  0  0  0  0  0  0  0  0  0  0
   -5.0013   -5.3625    0.0000 C   0  0  0  0  0  0  0  0  0  0  0  0
   -5.0013   -6.1875    0.0000 C   0  0  0  0  0  0  0  0  0  0  0  0
   -5.7158   -6.6000    0.0000 C   0  0  0  0  0  0  0  0  0  0  0  0
   -6.4302   -6.1875    0.0000 C   0  0  0  0  0  0  0  0  0  0  0  0
   -6.4302   -5.3625    0.0000 C   0  0  0  0  0  0  0  0  0  0  0  0
   -5.7158   -4.9500    0.0000 C   0  0  0  0  0  0  0  0  0  0  0  0
   -5.7158   -4.1250    0.0000 N   0  0  0  0  0  0  0  0  0  0  0  0
   -6.4302   -3.7125    0.0000 C   0  0  0  0  0  0  0  0  0  0  0  0
   -7.1447   -4.1250    0.0000 C   0  0  0  0  0  0  0  0  0  0  0  0
   -7.1447   -4.9500    0.0000 C   0  0  0  0  0  0  0  0  0  0  0  0
   -7.8592   -5.3625    0.0000 C   0  0  0  0  0  0  0  0  0  0  0  0
   -8.5737   -4.9500    0.0000 C   0  0  0  0  0  0  0  0  0  0  0  0
   -8.5737   -4.1250    0.0000 C   0  0  0  0  0  0  0  0  0  0  0  0
   -9.2881   -3.7125    0.0000 O   0  0  0  0  0  0  0  0  0  0  0  0
  -10.0026   -4.1250    0.0000 C   0  0  0  0  0  0  0  0  0  0  0  0
   -7.8592   -3.7125    0.0000 C   0  0  0  0  0  0  0  0  0  0  0  0
   -2.8579   -4.1250    0.0000 C   0  0  0  0  0  0  0  0  0  0  0  0
  1  2  1  0  0  0  0
  2  3  1  0  0  0  0
  3  4  2  0  0  0  0
  3 26  1  0  0  0  0
  4  5  1  0  0  0  0
  5  6  2  0  0  0  0
  6  7  1  0  0  0  0
  7  8  1  0  0  0  0
  7 26  2  0  0  0  0
  8  9  1  0  0  0  0
  9 10  1  0  0  0  0
 10 11  2  0  0  0  0
 10 15  1  0  0  0  0
 11 12  1  0  0  0  0
 12 13  2  0  0  0  0
 13 14  1  0  0  0  0
 14 15  2  0  0  0  0
 15 16  1  0  0  0  0
 16 17  1  0  0  0  0
 17 18  1  0  0  0  0
 18 19  2  0  0  0  0
 18 25  1  0  0  0  0
 19 20  1  0  0  0  0
 20 21  2  0  0  0  0
 21 22  1  0  0  0  0
 22 23  1  0  0  0  0
 22 25  2  0  0  0  0
 23 24  1  0  0  0  0
M  END
$$$$

 OpenBabel12191814062D

 28 30  0  0  0  0  0  0  0  0999 V2000
   -1.4289   -2.4750    0.0000 C   0  0  0  0  0  0  0  0  0  0  0  0
   -2.1434   -2.8875    0.0000 O   0  0  0  0  0  0  0  0  0  0  0  0
   -2.1434   -3.7125    0.0000 C   0  0  0  0  0  0  0  0  0  0  0  0
   -1.4289   -4.1250    0.0000 C   0  0  0  0  0  0  0  0  0  0  0  0
   -1.4289   -4.9500    0.0000 C   0  0  0  0  0  0  0  0  0  0  0  0
   -2.1434   -5.3625    0.0000 C   0  0  0  0  0  0  0  0  0  0  0  0
   -2.8579   -4.9500    0.0000 C   0  0  0  0  0  0  0  0  0  0  0  0
   -3.5724   -5.3625    0.0000 C   0  0  0  0  0  0  0  0  0  0  0  0
   -4.2868   -4.9500    0.0000 C   0  0  0  0  0  0  0  0  0  0  0  0
   -5.0013   -5.3625    0.0000 C   0  0  0  0  0  0  0  0  0  0  0  0
   -5.0013   -6.1875    0.0000 C   0  0  0  0  0  0  0  0  0  0  0  0
   -5.7158   -6.6000    0.0000 C   0  0  0  0  0  0  0  0  0  0  0  0
   -6.4302   -6.1875    0.0000 C   0  0  0  0  0  0  0  0  0  0  0  0
   -6.4302   -5.3625    0.0000 C   0  0  0  0  0  0  0  0  0  0  0  0
   -5.7158   -4.9500    0.0000 C   0  0  0  0  0  0  0  0  0  0  0  0
   -5.7158   -4.1250    0.0000 N   0  0  0  0  0  0  0  0  0  0  0  0
   -6.4302   -3.7125    0.0000 C   0  0  0  0  0  0  0  0  0  0  0  0
   -7.1447   -4.1250    0.0000 C   0  0  0  0  0  0  0  0  0  0  0  0
   -7.1447   -4.9500    0.0000 C   0  0  0  0  0  0  0  0  0  0  0  0
   -7.8592   -5.3625    0.0000 C   0  0  0  0  0  0  0  0  0  0  0  0
   -8.5737   -4.9500    0.0000 C   0  0  0  0  0  0  0  0  0  0  0  0
   -8.5737   -4.1250    0.0000 C   0  0  0  0  0  0  0  0  0  0  0  0
   -9.2881   -3.7125    0.0000 O   0  0  0  0  0  0  0  0  0  0  0  0
  -10.0026   -4.1250    0.0000 C   0  0  0  0  0  0  0  0  0  0  0  0
   -7.8592   -3.7125    0.0000 C   0  0  0  0  0  0  0  0  0  0  0  0
   -7.8592   -2.8875    0.0000 O   0  0  0  0  0  0  0  0  0  0  0  0
   -7.1447   -2.4750    0.0000 C   0  0  0  0  0  0  0  0  0  0  0  0
   -2.8579   -4.1250    0.0000 C   0  0  0  0  0  0  0  0  0  0  0  0
  1  2  1  0  0  0  0
  2  3  1  0  0  0  0
  3  4  2  0  0  0  0
  3 28  1  0  0  0  0
  4  5  1  0  0  0  0
  5  6  2  0  0  0  0
  6  7  1  0  0  0  0
  7  8  1  0  0  0  0
  7 28  2  0  0  0  0
  8  9  1  0  0  0  0
  9 10  1  0  0  0  0
 10 11  2  0  0  0  0
 10 15  1  0  0  0  0
 11 12  1  0  0  0  0
 12 13  2  0  0  0  0
 13 14  1  0  0  0  0
 14 15  2  0  0  0  0
 15 16  1  0  0  0  0
 16 17  1  0  0  0  0
 17 18  1  0  0  0  0
 18 19  2  0  0  0  0
 18 25  1  0  0  0  0
 19 20  1  0  0  0  0
 20 21  2  0  0  0  0
 21 22  1  0  0  0  0
 22 23  1  0  0  0  0
 22 25  2  0  0  0  0
 23 24  1  0  0  0  0
 25 26  1  0  0  0  0
 26 27  1  0  0  0  0
M  END
$$$$

 OpenBabel12191814062D

 28 30  0  0  0  0  0  0  0  0999 V2000
    5.7158    0.0000    0.0000 C   0  0  0  0  0  0  0  0  0  0  0  0
    5.0013   -0.4125    0.0000 O   0  0  0  0  0  0  0  0  0  0  0  0
    5.0013   -1.2375    0.0000 C   0  0  0  0  0  0  0  0  0  0  0  0
    5.7158   -1.6500    0.0000 C   0  0  0  0  0  0  0  0  0  0  0  0
    5.7158   -2.4750    0.0000 C   0  0  0  0  0  0  0  0  0  0  0  0
    5.0013   -2.8875    0.0000 C   0  0  0  0  0  0  0  0  0  0  0  0
    4.2868   -2.4750    0.0000 C   0  0  0  0  0  0  0  0  0  0  0  0
    3.5724   -2.8875    0.0000 C   0  0  0  0  0  0  0  0  0  0  0  0
    2.8579   -2.4750    0.0000 C   0  0  0  0  0  0  0  0  0  0  0  0
    2.1434   -2.8875    0.0000 C   0  0  0  0  0  0  0  0  0  0  0  0
    2.1434   -3.7125    0.0000 C   0  0  0  0  0  0  0  0  0  0  0  0
    1.4289   -4.1250    0.0000 C   0  0  0  0  0  0  0  0  0  0  0  0
    0.7145   -3.7125    0.0000 C   0  0  0  0  0  0  0  0  0  0  0  0
    0.7145   -2.8875    0.0000 C   0  0  0  0  0  0  0  0  0  0  0  0
    1.4289   -2.4750    0.0000 C   0  0  0  0  0  0  0  0  0  0  0  0
    1.4289   -1.6500    0.0000 O   0  0  0  0  0  0  0  0  0  0  0  0
    0.7145   -1.2375    0.0000 C   0  0  0  0  0  0  0  0  0  0  0  0
    0.7145   -0.4125    0.0000 C   0  0  0  0  0  0  0  0  0  0  0  0
    0.0000    0.0000    0.0000 C   0  0  0  0  0  0  0  0  0  0  0  0
    0.0000    0.8250    0.0000 C   0  0  0  0  0  0  0  0  0  0  0  0
   -0.7145    1.2375    0.0000 O   0  0  0  0  0  0  0  0  0  0  0  0
   -0.7145    2.0625    0.0000 C   0  0  0  0  0  0  0  0  0  0  0  0
    0.7145    1.2375    0.0000 C   0  0  0  0  0  0  0  0  0  0  0  0
    1.4289    0.8250    0.0000 C   0  0  0  0  0  0  0  0  0  0  0  0
    2.1434    1.2375    0.0000 O   0  0  0  0  0  0  0  0  0  0  0  0
    2.8579    0.8250    0.0000 C   0  0  0  0  0  0  0  0  0  0  0  0
    1.4289    0.0000    0.0000 C   0  0  0  0  0  0  0  0  0  0  0  0
    4.2868   -1.6500    0.0000 C   0  0  0  0  0  0  0  0  0  0  0  0
  1  2  1  0  0  0  0
  2  3  1  0  0  0  0
  3  4  2  0  0  0  0
  3 28  1  0  0  0  0
  4  5  1  0  0  0  0
  5  6  2  0  0  0  0
  6  7  1  0  0  0  0
  7  8  1  0  0  0  0
  7 28  2  0  0  0  0
  8  9  1  0  0  0  0
  9 10  1  0  0  0  0
 10 11  2  0  0  0  0
 10 15  1  0  0  0  0
 11 12  1  0  0  0  0
 12 13  2  0  0  0  0
 13 14  1  0  0  0  0
 14 15  2  0  0  0  0
 15 16  1  0  0  0  0
 16 17  1  0  0  0  0
 17 18  1  0  0  0  0
 18 19  2  0  0  0  0
 18 27  1  0  0  0  0
 19 20  1  0  0  0  0
 20 21  1  0  0  0  0
 20 23  2  0  0  0  0
 21 22  1  0  0  0  0
 23 24  1  0  0  0  0
 24 25  1  0  0  0  0
 24 27  2  0  0  0  0
 25 26  1  0  0  0  0
M  END
$$$$

 OpenBabel12191814062D

 28 30  0  0  0  0  0  0  0  0999 V2000
    4.2868   -2.4750    0.0000 C   0  0  0  0  0  0  0  0  0  0  0  0
    3.5724   -2.8875    0.0000 O   0  0  0  0  0  0  0  0  0  0  0  0
    3.5724   -3.7125    0.0000 C   0  0  0  0  0  0  0  0  0  0  0  0
    4.2868   -4.1250    0.0000 C   0  0  0  0  0  0  0  0  0  0  0  0
    4.2868   -4.9500    0.0000 C   0  0  0  0  0  0  0  0  0  0  0  0
    3.5724   -5.3625    0.0000 C   0  0  0  0  0  0  0  0  0  0  0  0
    2.8579   -4.9500    0.0000 C   0  0  0  0  0  0  0  0  0  0  0  0
    2.1434   -5.3625    0.0000 C   0  0  0  0  0  0  0  0  0  0  0  0
    2.1434   -6.1875    0.0000 C   0  0  0  0  0  0  0  0  0  0  0  0
    2.8579   -6.6000    0.0000 C   0  0  0  0  0  0  0  0  0  0  0  0
    3.5724   -6.1875    0.0000 C   0  0  0  0  0  0  0  0  0  0  0  0
    4.2868   -6.6000    0.0000 C   0  0  0  0  0  0  0  0  0  0  0  0
    4.2868   -7.4250    0.0000 C   0  0  0  0  0  0  0  0  0  0  0  0
    3.5724   -7.8375    0.0000 C   0  0  0  0  0  0  0  0  0  0  0  0
    2.8579   -7.4250    0.0000 C   0  0  0  0  0  0  0  0  0  0  0  0
    2.1434   -7.8375    0.0000 O   0  0  0  0  0  0  0  0  0  0  0  0
    2.1434   -8.6625    0.0000 C   0  0  0  0  0  0  0  0  0  0  0  0
    1.4289   -9.0750    0.0000 C   0  0  0  0  0  0  0  0  0  0  0  0
    1.4289   -9.9000    0.0000 C   0  0  0  0  0  0  0  0  0  0  0  0
    0.7145  -10.3125    0.0000 C   0  0  0  0  0  0  0  0  0  0  0  0
   -0.0000   -9.9000    0.0000 C   0  0  0  0  0  0  0  0  0  0  0  0
   -0.7145  -10.3125    0.0000 O   0  0  0  0  0  0  0  0  0  0  0  0
   -0.7145  -11.1375    0.0000 C   0  0  0  0  0  0  0  0  0  0  0  0
   -0.0000   -9.0750    0.0000 C   0  0  0  0  0  0  0  0  0  0  0  0
   -0.7145   -8.6625    0.0000 O   0  0  0  0  0  0  0  0  0  0  0  0
   -0.7145   -7.8375    0.0000 C   0  0  0  0  0  0  0  0  0  0  0  0
    0.7145   -8.6625    0.0000 C   0  0  0  0  0  0  0  0  0  0  0  0
    2.8579   -4.1250    0.0000 C   0  0  0  0  0  0  0  0  0  0  0  0
  1  2  1  0  0  0  0
  2  3  1  0  0  0  0
  3  4  2  0  0  0  0
  3 28  1  0  0  0  0
  4  5  1  0  0  0  0
  5  6  2  0  0  0  0
  6  7  1  0  0  0  0
  7  8  1  0  0  0  0
  7 28  2  0  0  0  0
  8  9  1  0  0  0  0
  9 10  1  0  0  0  0
 10 11  2  0  0  0  0
 10 15  1  0  0  0  0
 11 12  1  0  0  0  0
 12 13  2  0  0  0  0
 13 14  1  0  0  0  0
 14 15  2  0  0  0  0
 15 16  1  0  0  0  0
 16 17  1  0  0  0  0
 17 18  1  0  0  0  0
 18 19  2  0  0  0  0
 18 27  1  0  0  0  0
 19 20  1  0  0  0  0
 20 21  2  0  0  0  0
 21 22  1  0  0  0  0
 21 24  1  0  0  0  0
 22 23  1  0  0  0  0
 24 25  1  0  0  0  0
 24 27  2  0  0  0  0
 25 26  1  0  0  0  0
M  END
$$$$

 OpenBabel12191814062D

 28 30  0  0  0  0  0  0  0  0999 V2000
   -1.4289   -2.4750    0.0000 C   0  0  0  0  0  0  0  0  0  0  0  0
   -2.1434   -2.8875    0.0000 O   0  0  0  0  0  0  0  0  0  0  0  0
   -2.1434   -3.7125    0.0000 C   0  0  0  0  0  0  0  0  0  0  0  0
   -1.4289   -4.1250    0.0000 C   0  0  0  0  0  0  0  0  0  0  0  0
   -1.4289   -4.9500    0.0000 C   0  0  0  0  0  0  0  0  0  0  0  0
   -2.1434   -5.3625    0.0000 C   0  0  0  0  0  0  0  0  0  0  0  0
   -2.8579   -4.9500    0.0000 C   0  0  0  0  0  0  0  0  0  0  0  0
   -3.5724   -5.3625    0.0000 C   0  0  0  0  0  0  0  0  0  0  0  0
   -4.2868   -4.9500    0.0000 C   0  0  0  0  0  0  0  0  0  0  0  0
   -5.0013   -5.3625    0.0000 C   0  0  0  0  0  0  0  0  0  0  0  0
   -5.0013   -6.1875    0.0000 C   0  0  0  0  0  0  0  0  0  0  0  0
   -5.7158   -6.6000    0.0000 C   0  0  0  0  0  0  0  0  0  0  0  0
   -6.4302   -6.1875    0.0000 C   0  0  0  0  0  0  0  0  0  0  0  0
   -6.4302   -5.3625    0.0000 C   0  0  0  0  0  0  0  0  0  0  0  0
   -5.7158   -4.9500    0.0000 C   0  0  0  0  0  0  0  0  0  0  0  0
   -5.7158   -4.1250    0.0000 O   0  0  0  0  0  0  0  0  0  0  0  0
   -6.4302   -3.7125    0.0000 C   0  0  0  0  0  0  0  0  0  0  0  0
   -7.1447   -4.1250    0.0000 C   0  0  0  0  0  0  0  0  0  0  0  0
   -7.1447   -4.9500    0.0000 C   0  0  0  0  0  0  0  0  0  0  0  0
   -7.8592   -5.3625    0.0000 C   0  0  0  0  0  0  0  0  0  0  0  0
   -8.5737   -4.9500    0.0000 C   0  0  0  0  0  0  0  0  0  0  0  0
   -8.5737   -4.1250    0.0000 C   0  0  0  0  0  0  0  0  0  0  0  0
   -9.2881   -3.7125    0.0000 O   0  0  0  0  0  0  0  0  0  0  0  0
  -10.0026   -4.1250    0.0000 C   0  0  0  0  0  0  0  0  0  0  0  0
   -7.8592   -3.7125    0.0000 C   0  0  0  0  0  0  0  0  0  0  0  0
   -7.8592   -2.8875    0.0000 O   0  0  0  0  0  0  0  0  0  0  0  0
   -7.1447   -2.4750    0.0000 C   0  0  0  0  0  0  0  0  0  0  0  0
   -2.8579   -4.1250    0.0000 C   0  0  0  0  0  0  0  0  0  0  0  0
  1  2  1  0  0  0  0
  2  3  1  0  0  0  0
  3  4  2  0  0  0  0
  3 28  1  0  0  0  0
  4  5  1  0  0  0  0
  5  6  2  0  0  0  0
  6  7  1  0  0  0  0
  7  8  1  0  0  0  0
  7 28  2  0  0  0  0
  8  9  1  0  0  0  0
  9 10  1  0  0  0  0
 10 11  2  0  0  0  0
 10 15  1  0  0  0  0
 11 12  1  0  0  0  0
 12 13  2  0  0  0  0
 13 14  1  0  0  0  0
 14 15  2  0  0  0  0
 15 16  1  0  0  0  0
 16 17  1  0  0  0  0
 17 18  1  0  0  0  0
 18 19  2  0  0  0  0
 18 25  1  0  0  0  0
 19 20  1  0  0  0  0
 20 21  2  0  0  0  0
 21 22  1  0  0  0  0
 22 23  1  0  0  0  0
 22 25  2  0  0  0  0
 23 24  1  0  0  0  0
 25 26  1  0  0  0  0
 26 27  1  0  0  0  0
M  END
$$$$

 OpenBabel12191814062D

 26 28  0  0  0  0  0  0  0  0999 V2000
   -1.4289   -2.4750    0.0000 C   0  0  0  0  0  0  0  0  0  0  0  0
   -2.1434   -2.8875    0.0000 O   0  0  0  0  0  0  0  0  0  0  0  0
   -2.1434   -3.7125    0.0000 C   0  0  0  0  0  0  0  0  0  0  0  0
   -1.4289   -4.1250    0.0000 C   0  0  0  0  0  0  0  0  0  0  0  0
   -1.4289   -4.9500    0.0000 C   0  0  0  0  0  0  0  0  0  0  0  0
   -2.1434   -5.3625    0.0000 C   0  0  0  0  0  0  0  0  0  0  0  0
   -2.8579   -4.9500    0.0000 C   0  0  0  0  0  0  0  0  0  0  0  0
   -3.5724   -5.3625    0.0000 C   0  0  0  0  0  0  0  0  0  0  0  0
   -4.2868   -4.9500    0.0000 C   0  0  0  0  0  0  0  0  0  0  0  0
   -5.0013   -5.3625    0.0000 C   0  0  0  0  0  0  0  0  0  0  0  0
   -5.0013   -6.1875    0.0000 C   0  0  0  0  0  0  0  0  0  0  0  0
   -5.7158   -6.6000    0.0000 C   0  0  0  0  0  0  0  0  0  0  0  0
   -6.4302   -6.1875    0.0000 C   0  0  0  0  0  0  0  0  0  0  0  0
   -6.4302   -5.3625    0.0000 C   0  0  0  0  0  0  0  0  0  0  0  0
   -5.7158   -4.9500    0.0000 C   0  0  0  0  0  0  0  0  0  0  0  0
   -5.7158   -4.1250    0.0000 O   0  0  0  0  0  0  0  0  0  0  0  0
   -6.4302   -3.7125    0.0000 C   0  0  0  0  0  0  0  0  0  0  0  0
   -7.1447   -4.1250    0.0000 C   0  0  0  0  0  0  0  0  0  0  0  0
   -7.1447   -4.9500    0.0000 C   0  0  0  0  0  0  0  0  0  0  0  0
   -7.8592   -5.3625    0.0000 C   0  0  0  0  0  0  0  0  0  0  0  0
   -8.5737   -4.9500    0.0000 C   0  0  0  0  0  0  0  0  0  0  0  0
   -8.5737   -4.1250    0.0000 C   0  0  0  0  0  0  0  0  0  0  0  0
   -7.8592   -3.7125    0.0000 C   0  0  0  0  0  0  0  0  0  0  0  0
   -7.8592   -2.8875    0.0000 O   0  0  0  0  0  0  0  0  0  0  0  0
   -7.1447   -2.4750    0.0000 C   0  0  0  0  0  0  0  0  0  0  0  0
   -2.8579   -4.1250    0.0000 C   0  0  0  0  0  0  0  0  0  0  0  0
  1  2  1  0  0  0  0
  2  3  1  0  0  0  0
  3  4  2  0  0  0  0
  3 26  1  0  0  0  0
  4  5  1  0  0  0  0
  5  6  2  0  0  0  0
  6  7  1  0  0  0  0
  7  8  1  0  0  0  0
  7 26  2  0  0  0  0
  8  9  1  0  0  0  0
  9 10  1  0  0  0  0
 10 11  2  0  0  0  0
 10 15  1  0  0  0  0
 11 12  1  0  0  0  0
 12 13  2  0  0  0  0
 13 14  1  0  0  0  0
 14 15  2  0  0  0  0
 15 16  1  0  0  0  0
 16 17  1  0  0  0  0
 17 18  1  0  0  0  0
 18 19  2  0  0  0  0
 18 23  1  0  0  0  0
 19 20  1  0  0  0  0
 20 21  2  0  0  0  0
 21 22  1  0  0  0  0
 22 23  2  0  0  0  0
 23 24  1  0  0  0  0
 24 25  1  0  0  0  0
M  END
$$$$

 OpenBabel12191814062D

 24 26  0  0  0  0  0  0  0  0999 V2000
   -1.4289   -2.4750    0.0000 C   0  0  0  0  0  0  0  0  0  0  0  0
   -2.1434   -2.8875    0.0000 O   0  0  0  0  0  0  0  0  0  0  0  0
   -2.1434   -3.7125    0.0000 C   0  0  0  0  0  0  0  0  0  0  0  0
   -1.4289   -4.1250    0.0000 C   0  0  0  0  0  0  0  0  0  0  0  0
   -1.4289   -4.9500    0.0000 C   0  0  0  0  0  0  0  0  0  0  0  0
   -2.1434   -5.3625    0.0000 C   0  0  0  0  0  0  0  0  0  0  0  0
   -2.8579   -4.9500    0.0000 C   0  0  0  0  0  0  0  0  0  0  0  0
   -3.5724   -5.3625    0.0000 C   0  0  0  0  0  0  0  0  0  0  0  0
   -4.2868   -4.9500    0.0000 C   0  0  0  0  0  0  0  0  0  0  0  0
   -5.0013   -5.3625    0.0000 C   0  0  0  0  0  0  0  0  0  0  0  0
   -5.0013   -6.1875    0.0000 C   0  0  0  0  0  0  0  0  0  0  0  0
   -5.7158   -6.6000    0.0000 C   0  0  0  0  0  0  0  0  0  0  0  0
   -6.4302   -6.1875    0.0000 C   0  0  0  0  0  0  0  0  0  0  0  0
   -6.4302   -5.3625    0.0000 C   0  0  0  0  0  0  0  0  0  0  0  0
   -5.7158   -4.9500    0.0000 C   0  0  0  0  0  0  0  0  0  0  0  0
   -5.7158   -4.1250    0.0000 O   0  0  0  0  0  0  0  0  0  0  0  0
   -6.4302   -3.7125    0.0000 C   0  0  0  0  0  0  0  0  0  0  0  0
   -7.1447   -4.1250    0.0000 C   0  0  0  0  0  0  0  0  0  0  0  0
   -7.1447   -4.9500    0.0000 C   0  0  0  0  0  0  0  0  0  0  0  0
   -7.8592   -5.3625    0.0000 C   0  0  0  0  0  0  0  0  0  0  0  0
   -8.5737   -4.9500    0.0000 N   0  0  0  0  0  0  0  0  0  0  0  0
   -8.5737   -4.1250    0.0000 C   0  0  0  0  0  0  0  0  0  0  0  0
   -7.8592   -3.7125    0.0000 C   0  0  0  0  0  0  0  0  0  0  0  0
   -2.8579   -4.1250    0.0000 C   0  0  0  0  0  0  0  0  0  0  0  0
  1  2  1  0  0  0  0
  2  3  1  0  0  0  0
  3  4  2  0  0  0  0
  3 24  1  0  0  0  0
  4  5  1  0  0  0  0
  5  6  2  0  0  0  0
  6  7  1  0  0  0  0
  7  8  1  0  0  0  0
  7 24  2  0  0  0  0
  8  9  1  0  0  0  0
  9 10  1  0  0  0  0
 10 11  2  0  0  0  0
 10 15  1  0  0  0  0
 11 12  1  0  0  0  0
 12 13  2  0  0  0  0
 13 14  1  0  0  0  0
 14 15  2  0  0  0  0
 15 16  1  0  0  0  0
 16 17  1  0  0  0  0
 17 18  1  0  0  0  0
 18 19  2  0  0  0  0
 18 23  1  0  0  0  0
 19 20  1  0  0  0  0
 20 21  2  0  0  0  0
 21 22  1  0  0  0  0
 22 23  2  0  0  0  0
M  END
$$$$

 OpenBabel12191814062D

 36 39  0  0  0  0  0  0  0  0999 V2000
    2.1434    2.0625    0.0000 C   0  0  0  0  0  0  0  0  0  0  0  0
    2.8579    1.6500    0.0000 O   0  0  0  0  0  0  0  0  0  0  0  0
    3.5724    2.0625    0.0000 C   0  0  0  0  0  0  0  0  0  0  0  0
    3.5724    2.8875    0.0000 C   0  0  0  0  0  0  0  0  0  0  0  0
    4.2868    3.3000    0.0000 C   0  0  0  0  0  0  0  0  0  0  0  0
    5.0013    2.8875    0.0000 C   0  0  0  0  0  0  0  0  0  0  0  0
    5.0013    2.0625    0.0000 C   0  0  0  0  0  0  0  0  0  0  0  0
    5.7158    1.6500    0.0000 C   0  0  0  0  0  0  0  0  0  0  0  0
    5.7158    0.8250    0.0000 C   0  0  0  0  0  0  0  0  0  0  0  0
    6.4302    0.4125    0.0000 C   0  0  0  0  0  0  0  0  0  0  0  0
    7.1447    0.8250    0.0000 C   0  0  0  0  0  0  0  0  0  0  0  0
    7.8592    0.4125    0.0000 C   0  0  0  0  0  0  0  0  0  0  0  0
    7.8592   -0.4125    0.0000 C   0  0  0  0  0  0  0  0  0  0  0  0
    7.1447   -0.8250    0.0000 C   0  0  0  0  0  0  0  0  0  0  0  0
    6.4302   -0.4125    0.0000 C   0  0  0  0  0  0  0  0  0  0  0  0
    5.7158   -0.8250    0.0000 O   0  0  0  0  0  0  0  0  0  0  0  0
    5.7158   -1.6500    0.0000 C   0  0  0  0  0  0  0  0  0  0  0  0
    6.4302   -2.0625    0.0000 C   0  0  0  0  0  0  0  0  0  0  0  0
    7.1447   -1.6500    0.0000 C   0  0  0  0  0  0  0  0  0  0  0  0
    7.8592   -2.0625    0.0000 C   0  0  0  0  0  0  0  0  0  0  0  0
    8.5737   -1.6500    0.0000 C   0  0  0  0  0  0  0  0  0  0  0  0
    9.2881   -2.0625    0.0000 N   0  0  0  0  0  0  0  0  0  0  0  0
   10.0026   -1.6500    0.0000 C   0  0  0  0  0  0  0  0  0  0  0  0
   10.7171   -2.0625    0.0000 C   0  0  0  0  0  0  0  0  0  0  0  0
   10.7171   -2.8875    0.0000 C   0  0  0  0  0  0  0  0  0  0  0  0
   11.4315   -3.3000    0.0000 C   0  0  0  0  0  0  0  0  0  0  0  0
   11.4315   -4.1250    0.0000 C   0  0  0  0  0  0  0  0  0  0  0  0
   12.1460   -4.5375    0.0000 O   0  0  0  0  0  0  0  0  0  0  0  0
   12.8605   -4.1250    0.0000 C   0  0  0  0  0  0  0  0  0  0  0  0
   10.7171   -4.5375    0.0000 C   0  0  0  0  0  0  0  0  0  0  0  0
   10.7171   -5.3625    0.0000 O   0  0  0  0  0  0  0  0  0  0  0  0
   10.0026   -5.7750    0.0000 C   0  0  0  0  0  0  0  0  0  0  0  0
   10.0026   -4.1250    0.0000 C   0  0  0  0  0  0  0  0  0  0  0  0
   10.0026   -3.3000    0.0000 C   0  0  0  0  0  0  0  0  0  0  0  0
    9.2881   -2.8875    0.0000 C   0  0  0  0  0  0  0  0  0  0  0  0
    4.2868    1.6500    0.0000 C   0  0  0  0  0  0  0  0  0  0  0  0
  1  2  1  0  0  0  0
  2  3  1  0  0  0  0
  3  4  2  0  0  0  0
  3 36  1  0  0  0  0
  4  5  1  0  0  0  0
  5  6  2  0  0  0  0
  6  7  1  0  0  0  0
  7  8  1  0  0  0  0
  7 36  2  0  0  0  0
  8  9  1  0  0  0  0
  9 10  1  0  0  0  0
 10 11  2  0  0  0  0
 10 15  1  0  0  0  0
 11 12  1  0  0  0  0
 12 13  2  0  0  0  0
 13 14  1  0  0  0  0
 14 15  2  0  0  0  0
 15 16  1  0  0  0  0
 16 17  1  0  0  0  0
 17 18  1  0  0  0  0
 18 19  1  0  0  0  0
 19 20  1  0  0  0  0
 20 21  1  0  0  0  0
 21 22  1  0  0  0  0
 22 23  1  0  0  0  0
 22 35  1  0  0  0  0
 23 24  1  0  0  0  0
 24 25  1  0  0  0  0
 25 26  2  0  0  0  0
 25 34  1  0  0  0  0
 26 27  1  0  0  0  0
 27 28  1  0  0  0  0
 27 30  2  0  0  0  0
 28 29  1  0  0  0  0
 30 31  1  0  0  0  0
 30 33  1  0  0  0  0
 31 32  1  0  0  0  0
 33 34  2  0  0  0  0
 34 35  1  0  0  0  0
M  END
$$$$

 OpenBabel12191814062D

 32 35  0  0  0  0  0  0  0  0999 V2000
    4.2868   -6.6000    0.0000 C   0  0  0  0  0  0  0  0  0  0  0  0
    4.2868   -5.7750    0.0000 O   0  0  0  0  0  0  0  0  0  0  0  0
    3.5724   -5.3625    0.0000 C   0  0  0  0  0  0  0  0  0  0  0  0
    2.8579   -5.7750    0.0000 C   0  0  0  0  0  0  0  0  0  0  0  0
    2.1434   -5.3625    0.0000 C   0  0  0  0  0  0  0  0  0  0  0  0
    2.1434   -4.5375    0.0000 C   0  0  0  0  0  0  0  0  0  0  0  0
    2.8579   -4.1250    0.0000 C   0  0  0  0  0  0  0  0  0  0  0  0
    2.8579   -3.3000    0.0000 C   0  0  0  0  0  0  0  0  0  0  0  0
    3.5724   -2.8875    0.0000 C   0  0  0  0  0  0  0  0  0  0  0  0
    3.5724   -2.0625    0.0000 C   0  0  0  0  0  0  0  0  0  0  0  0
    2.8579   -1.6500    0.0000 C   0  0  0  0  0  0  0  0  0  0  0  0
    2.8579   -0.8250    0.0000 C   0  0  0  0  0  0  0  0  0  0  0  0
    3.5724   -0.4125    0.0000 C   0  0  0  0  0  0  0  0  0  0  0  0
    4.2868   -0.8250    0.0000 C   0  0  0  0  0  0  0  0  0  0  0  0
    4.2868   -1.6500    0.0000 C   0  0  0  0  0  0  0  0  0  0  0  0
    5.0013   -2.0625    0.0000 O   0  0  0  0  0  0  0  0  0  0  0  0
    5.7158   -1.6500    0.0000 C   0  0  0  0  0  0  0  0  0  0  0  0
    6.4302   -2.0625    0.0000 C   0  0  0  0  0  0  0  0  0  0  0  0
    7.1447   -1.6500    0.0000 C   0  0  0  0  0  0  0  0  0  0  0  0
    7.8592   -2.0625    0.0000 C   0  0  0  0  0  0  0  0  0  0  0  0
    8.5737   -1.6500    0.0000 C   0  0  0  0  0  0  0  0  0  0  0  0
    9.2881   -2.0625    0.0000 N   0  0  0  0  0  0  0  0  0  0  0  0
   10.0026   -1.6500    0.0000 C   0  0  0  0  0  0  0  0  0  0  0  0
   10.7171   -2.0625    0.0000 C   0  0  0  0  0  0  0  0  0  0  0  0
   10.7171   -2.8875    0.0000 C   0  0  0  0  0  0  0  0  0  0  0  0
   11.4315   -3.3000    0.0000 C   0  0  0  0  0  0  0  0  0  0  0  0
   11.4315   -4.1250    0.0000 C   0  0  0  0  0  0  0  0  0  0  0  0
   10.7171   -4.5375    0.0000 C   0  0  0  0  0  0  0  0  0  0  0  0
   10.0026   -4.1250    0.0000 C   0  0  0  0  0  0  0  0  0  0  0  0
   10.0026   -3.3000    0.0000 C   0  0  0  0  0  0  0  0  0  0  0  0
    9.2881   -2.8875    0.0000 C   0  0  0  0  0  0  0  0  0  0  0  0
    3.5724   -4.5375    0.0000 C   0  0  0  0  0  0  0  0  0  0  0  0
  1  2  1  0  0  0  0
  2  3  1  0  0  0  0
  3  4  2  0  0  0  0
  3 32  1  0  0  0  0
  4  5  1  0  0  0  0
  5  6  2  0  0  0  0
  6  7  1  0  0  0  0
  7  8  1  0  0  0  0
  7 32  2  0  0  0  0
  8  9  1  0  0  0  0
  9 10  1  0  0  0  0
 10 11  2  0  0  0  0
 10 15  1  0  0  0  0
 11 12  1  0  0  0  0
 12 13  2  0  0  0  0
 13 14  1  0  0  0  0
 14 15  2  0  0  0  0
 15 16  1  0  0  0  0
 16 17  1  0  0  0  0
 17 18  1  0  0  0  0
 18 19  1  0  0  0  0
 19 20  1  0  0  0  0
 20 21  1  0  0  0  0
 21 22  1  0  0  0  0
 22 23  1  0  0  0  0
 22 31  1  0  0  0  0
 23 24  1  0  0  0  0
 24 25  1  0  0  0  0
 25 26  2  0  0  0  0
 25 30  1  0  0  0  0
 26 27  1  0  0  0  0
 27 28  2  0  0  0  0
 28 29  1  0  0  0  0
 29 30  2  0  0  0  0
 30 31  1  0  0  0  0
M  END
$$$$

 OpenBabel12191814062D

 29 31  0  0  0  0  0  0  0  0999 V2000
    0.7145   -8.6625    0.0000 C   0  0  0  0  0  0  0  0  0  0  0  0
    0.7145   -7.8375    0.0000 O   0  0  0  0  0  0  0  0  0  0  0  0
    0.0000   -7.4250    0.0000 C   0  0  0  0  0  0  0  0  0  0  0  0
   -0.7145   -7.8375    0.0000 C   0  0  0  0  0  0  0  0  0  0  0  0
   -1.4289   -7.4250    0.0000 C   0  0  0  0  0  0  0  0  0  0  0  0
   -1.4289   -6.6000    0.0000 C   0  0  0  0  0  0  0  0  0  0  0  0
   -0.7145   -6.1875    0.0000 C   0  0  0  0  0  0  0  0  0  0  0  0
   -0.7145   -5.3625    0.0000 C   0  0  0  0  0  0  0  0  0  0  0  0
    0.0000   -4.9500    0.0000 C   0  0  0  0  0  0  0  0  0  0  0  0
    0.0000   -4.1250    0.0000 C   0  0  0  0  0  0  0  0  0  0  0  0
   -0.7145   -3.7125    0.0000 C   0  0  0  0  0  0  0  0  0  0  0  0
   -0.7145   -2.8875    0.0000 C   0  0  0  0  0  0  0  0  0  0  0  0
    0.0000   -2.4750    0.0000 C   0  0  0  0  0  0  0  0  0  0  0  0
    0.7145   -2.8875    0.0000 C   0  0  0  0  0  0  0  0  0  0  0  0
    0.7145   -3.7125    0.0000 C   0  0  0  0  0  0  0  0  0  0  0  0
    1.4289   -4.1250    0.0000 O   0  0  0  0  0  0  0  0  0  0  0  0
    2.1434   -3.7125    0.0000 C   0  0  0  0  0  0  0  0  0  0  0  0
    2.8579   -4.1250    0.0000 C   0  0  0  0  0  0  0  0  0  0  0  0
    3.5724   -3.7125    0.0000 C   0  0  0  0  0  0  0  0  0  0  0  0
    4.2868   -4.1250    0.0000 C   0  0  0  0  0  0  0  0  0  0  0  0
    5.0013   -3.7125    0.0000 C   0  0  0  0  0  0  0  0  0  0  0  0
    5.7158   -4.1250    0.0000 N   0  0  0  0  0  0  0  0  0  0  0  0
    6.4302   -3.7125    0.0000 C   0  0  0  0  0  0  0  0  0  0  0  0
    7.1447   -4.1250    0.0000 C   0  0  0  0  0  0  0  0  0  0  0  0
    7.1447   -4.9500    0.0000 N   0  0  0  0  0  0  0  0  0  0  0  0
    7.8592   -5.3625    0.0000 C   0  0  0  0  0  0  0  0  0  0  0  0
    6.4302   -5.3625    0.0000 C   0  0  0  0  0  0  0  0  0  0  0  0
    5.7158   -4.9500    0.0000 C   0  0  0  0  0  0  0  0  0  0  0  0
    0.0000   -6.6000    0.0000 C   0  0  0  0  0  0  0  0  0  0  0  0
  1  2  1  0  0  0  0
  2  3  1  0  0  0  0
  3  4  2  0  0  0  0
  3 29  1  0  0  0  0
  4  5  1  0  0  0  0
  5  6  2  0  0  0  0
  6  7  1  0  0  0  0
  7  8  1  0  0  0  0
  7 29  2  0  0  0  0
  8  9  1  0  0  0  0
  9 10  1  0  0  0  0
 10 11  2  0  0  0  0
 10 15  1  0  0  0  0
 11 12  1  0  0  0  0
 12 13  2  0  0  0  0
 13 14  1  0  0  0  0
 14 15  2  0  0  0  0
 15 16  1  0  0  0  0
 16 17  1  0  0  0  0
 17 18  1  0  0  0  0
 18 19  1  0  0  0  0
 19 20  1  0  0  0  0
 20 21  1  0  0  0  0
 21 22  1  0  0  0  0
 22 23  1  0  0  0  0
 22 28  1  0  0  0  0
 23 24  1  0  0  0  0
 24 25  1  0  0  0  0
 25 26  1  0  0  0  0
 25 27  1  0  0  0  0
 27 28  1  0  0  0  0
M  END
$$$$

 OpenBabel12191814062D

 35 38  0  0  0  0  0  0  0  0999 V2000
    0.7145  -11.1375    0.0000 C   0  0  0  0  0  0  0  0  0  0  0  0
    0.7145  -10.3125    0.0000 O   0  0  0  0  0  0  0  0  0  0  0  0
    0.0000   -9.9000    0.0000 C   0  0  0  0  0  0  0  0  0  0  0  0
   -0.7145  -10.3125    0.0000 C   0  0  0  0  0  0  0  0  0  0  0  0
   -1.4289   -9.9000    0.0000 C   0  0  0  0  0  0  0  0  0  0  0  0
   -1.4289   -9.0750    0.0000 C   0  0  0  0  0  0  0  0  0  0  0  0
   -0.7145   -8.6625    0.0000 C   0  0  0  0  0  0  0  0  0  0  0  0
   -0.7145   -7.8375    0.0000 C   0  0  0  0  0  0  0  0  0  0  0  0
    0.0000   -7.4250    0.0000 C   0  0  0  0  0  0  0  0  0  0  0  0
    0.0000   -6.6000    0.0000 C   0  0  0  0  0  0  0  0  0  0  0  0
   -0.7145   -6.1875    0.0000 C   0  0  0  0  0  0  0  0  0  0  0  0
   -0.7145   -5.3625    0.0000 C   0  0  0  0  0  0  0  0  0  0  0  0
    0.0000   -4.9500    0.0000 C   0  0  0  0  0  0  0  0  0  0  0  0
    0.7145   -5.3625    0.0000 C   0  0  0  0  0  0  0  0  0  0  0  0
    0.7145   -6.1875    0.0000 C   0  0  0  0  0  0  0  0  0  0  0  0
    1.4289   -6.6000    0.0000 O   0  0  0  0  0  0  0  0  0  0  0  0
    2.1434   -6.1875    0.0000 C   0  0  0  0  0  0  0  0  0  0  0  0
    2.8579   -6.6000    0.0000 C   0  0  0  0  0  0  0  0  0  0  0  0
    3.5724   -6.1875    0.0000 C   0  0  0  0  0  0  0  0  0  0  0  0
    4.2868   -6.6000    0.0000 C   0  0  0  0  0  0  0  0  0  0  0  0
    5.0013   -6.1875    0.0000 C   0  0  0  0  0  0  0  0  0  0  0  0
    5.7158   -6.6000    0.0000 N   0  0  0  0  0  0  0  0  0  0  0  0
    6.4302   -6.1875    0.0000 C   0  0  0  0  0  0  0  0  0  0  0  0
    7.1447   -6.6000    0.0000 C   0  0  0  0  0  0  0  0  0  0  0  0
    7.1447   -7.4250    0.0000 N   0  0  0  0  0  0  0  0  0  0  0  0
    6.4302   -7.8375    0.0000 C   0  0  0  0  0  0  0  0  0  0  0  0
    5.7158   -7.4250    0.0000 C   0  0  0  0  0  0  0  0  0  0  0  0
    7.8592   -7.8375    0.0000 C   0  0  0  0  0  0  0  0  0  0  0  0
    8.5737   -7.4250    0.0000 C   0  0  0  0  0  0  0  0  0  0  0  0
    9.2881   -7.8375    0.0000 C   0  0  0  0  0  0  0  0  0  0  0  0
    9.2881   -8.6625    0.0000 C   0  0  0  0  0  0  0  0  0  0  0  0
   10.0026   -9.0750    0.0000 F   0  0  0  0  0  0  0  0  0  0  0  0
    8.5737   -9.0750    0.0000 C   0  0  0  0  0  0  0  0  0  0  0  0
    7.8592   -8.6625    0.0000 C   0  0  0  0  0  0  0  0  0  0  0  0
    0.0000   -9.0750    0.0000 C   0  0  0  0  0  0  0  0  0  0  0  0
  1  2  1  0  0  0  0
  2  3  1  0  0  0  0
  3  4  2  0  0  0  0
  3 35  1  0  0  0  0
  4  5  1  0  0  0  0
  5  6  2  0  0  0  0
  6  7  1  0  0  0  0
  7  8  1  0  0  0  0
  7 35  2  0  0  0  0
  8  9  1  0  0  0  0
  9 10  1  0  0  0  0
 10 11  2  0  0  0  0
 10 15  1  0  0  0  0
 11 12  1  0  0  0  0
 12 13  2  0  0  0  0
 13 14  1  0  0  0  0
 14 15  2  0  0  0  0
 15 16  1  0  0  0  0
 16 17  1  0  0  0  0
 17 18  1  0  0  0  0
 18 19  1  0  0  0  0
 19 20  1  0  0  0  0
 20 21  1  0  0  0  0
 21 22  1  0  0  0  0
 22 23  1  0  0  0  0
 22 27  1  0  0  0  0
 23 24  1  0  0  0  0
 24 25  1  0  0  0  0
 25 26  1  0  0  0  0
 25 28  1  0  0  0  0
 26 27  1  0  0  0  0
 28 29  2  0  0  0  0
 28 34  1  0  0  0  0
 29 30  1  0  0  0  0
 30 31  2  0  0  0  0
 31 32  1  0  0  0  0
 31 33  1  0  0  0  0
 33 34  2  0  0  0  0
M  END
$$$$

 OpenBabel12191814062D

 35 38  0  0  0  0  0  0  0  0999 V2000
    0.7145  -11.1375    0.0000 C   0  0  0  0  0  0  0  0  0  0  0  0
    0.7145  -10.3125    0.0000 O   0  0  0  0  0  0  0  0  0  0  0  0
    0.0000   -9.9000    0.0000 C   0  0  0  0  0  0  0  0  0  0  0  0
   -0.7145  -10.3125    0.0000 C   0  0  0  0  0  0  0  0  0  0  0  0
   -1.4289   -9.9000    0.0000 C   0  0  0  0  0  0  0  0  0  0  0  0
   -1.4289   -9.0750    0.0000 C   0  0  0  0  0  0  0  0  0  0  0  0
   -0.7145   -8.6625    0.0000 C   0  0  0  0  0  0  0  0  0  0  0  0
   -0.7145   -7.8375    0.0000 C   0  0  0  0  0  0  0  0  0  0  0  0
    0.0000   -7.4250    0.0000 C   0  0  0  0  0  0  0  0  0  0  0  0
    0.0000   -6.6000    0.0000 C   0  0  0  0  0  0  0  0  0  0  0  0
   -0.7145   -6.1875    0.0000 C   0  0  0  0  0  0  0  0  0  0  0  0
   -0.7145   -5.3625    0.0000 C   0  0  0  0  0  0  0  0  0  0  0  0
    0.0000   -4.9500    0.0000 C   0  0  0  0  0  0  0  0  0  0  0  0
    0.7145   -5.3625    0.0000 C   0  0  0  0  0  0  0  0  0  0  0  0
    0.7145   -6.1875    0.0000 C   0  0  0  0  0  0  0  0  0  0  0  0
    1.4289   -6.6000    0.0000 O   0  0  0  0  0  0  0  0  0  0  0  0
    2.1434   -6.1875    0.0000 C   0  0  0  0  0  0  0  0  0  0  0  0
    2.8579   -6.6000    0.0000 C   0  0  0  0  0  0  0  0  0  0  0  0
    3.5724   -6.1875    0.0000 C   0  0  0  0  0  0  0  0  0  0  0  0
    4.2868   -6.6000    0.0000 C   0  0  0  0  0  0  0  0  0  0  0  0
    5.0013   -6.1875    0.0000 C   0  0  0  0  0  0  0  0  0  0  0  0
    5.7158   -6.6000    0.0000 N   0  0  0  0  0  0  0  0  0  0  0  0
    6.4302   -6.1875    0.0000 C   0  0  0  0  0  0  0  0  0  0  0  0
    7.1447   -6.6000    0.0000 C   0  0  0  0  0  0  0  0  0  0  0  0
    7.1447   -7.4250    0.0000 N   0  0  0  0  0  0  0  0  0  0  0  0
    6.4302   -7.8375    0.0000 C   0  0  0  0  0  0  0  0  0  0  0  0
    5.7158   -7.4250    0.0000 C   0  0  0  0  0  0  0  0  0  0  0  0
    7.8592   -7.8375    0.0000 C   0  0  0  0  0  0  0  0  0  0  0  0
    8.5737   -7.4250    0.0000 C   0  0  0  0  0  0  0  0  0  0  0  0
    9.2881   -7.8375    0.0000 C   0  0  0  0  0  0  0  0  0  0  0  0
    9.2881   -8.6625    0.0000 C   0  0  0  0  0  0  0  0  0  0  0  0
    8.5737   -9.0750    0.0000 C   0  0  0  0  0  0  0  0  0  0  0  0
    8.5737   -9.9000    0.0000 Cl  0  0  0  0  0  0  0  0  0  0  0  0
    7.8592   -8.6625    0.0000 C   0  0  0  0  0  0  0  0  0  0  0  0
    0.0000   -9.0750    0.0000 C   0  0  0  0  0  0  0  0  0  0  0  0
  1  2  1  0  0  0  0
  2  3  1  0  0  0  0
  3  4  2  0  0  0  0
  3 35  1  0  0  0  0
  4  5  1  0  0  0  0
  5  6  2  0  0  0  0
  6  7  1  0  0  0  0
  7  8  1  0  0  0  0
  7 35  2  0  0  0  0
  8  9  1  0  0  0  0
  9 10  1  0  0  0  0
 10 11  2  0  0  0  0
 10 15  1  0  0  0  0
 11 12  1  0  0  0  0
 12 13  2  0  0  0  0
 13 14  1  0  0  0  0
 14 15  2  0  0  0  0
 15 16  1  0  0  0  0
 16 17  1  0  0  0  0
 17 18  1  0  0  0  0
 18 19  1  0  0  0  0
 19 20  1  0  0  0  0
 20 21  1  0  0  0  0
 21 22  1  0  0  0  0
 22 23  1  0  0  0  0
 22 27  1  0  0  0  0
 23 24  1  0  0  0  0
 24 25  1  0  0  0  0
 25 26  1  0  0  0  0
 25 28  1  0  0  0  0
 26 27  1  0  0  0  0
 28 29  2  0  0  0  0
 28 34  1  0  0  0  0
 29 30  1  0  0  0  0
 30 31  2  0  0  0  0
 31 32  1  0  0  0  0
 32 33  1  0  0  0  0
 32 34  2  0  0  0  0
M  END
$$$$

 OpenBabel12191814062D

 36 39  0  0  0  0  0  0  0  0999 V2000
    0.7145  -11.1375    0.0000 C   0  0  0  0  0  0  0  0  0  0  0  0
    0.7145  -10.3125    0.0000 O   0  0  0  0  0  0  0  0  0  0  0  0
    0.0000   -9.9000    0.0000 C   0  0  0  0  0  0  0  0  0  0  0  0
   -0.7145  -10.3125    0.0000 C   0  0  0  0  0  0  0  0  0  0  0  0
   -1.4289   -9.9000    0.0000 C   0  0  0  0  0  0  0  0  0  0  0  0
   -1.4289   -9.0750    0.0000 C   0  0  0  0  0  0  0  0  0  0  0  0
   -0.7145   -8.6625    0.0000 C   0  0  0  0  0  0  0  0  0  0  0  0
   -0.7145   -7.8375    0.0000 C   0  0  0  0  0  0  0  0  0  0  0  0
    0.0000   -7.4250    0.0000 C   0  0  0  0  0  0  0  0  0  0  0  0
    0.0000   -6.6000    0.0000 C   0  0  0  0  0  0  0  0  0  0  0  0
   -0.7145   -6.1875    0.0000 C   0  0  0  0  0  0  0  0  0  0  0  0
   -0.7145   -5.3625    0.0000 C   0  0  0  0  0  0  0  0  0  0  0  0
    0.0000   -4.9500    0.0000 C   0  0  0  0  0  0  0  0  0  0  0  0
    0.7145   -5.3625    0.0000 C   0  0  0  0  0  0  0  0  0  0  0  0
    0.7145   -6.1875    0.0000 C   0  0  0  0  0  0  0  0  0  0  0  0
    1.4289   -6.6000    0.0000 O   0  0  0  0  0  0  0  0  0  0  0  0
    2.1434   -6.1875    0.0000 C   0  0  0  0  0  0  0  0  0  0  0  0
    2.8579   -6.6000    0.0000 C   0  0  0  0  0  0  0  0  0  0  0  0
    3.5724   -6.1875    0.0000 C   0  0  0  0  0  0  0  0  0  0  0  0
    4.2868   -6.6000    0.0000 C   0  0  0  0  0  0  0  0  0  0  0  0
    5.0013   -6.1875    0.0000 C   0  0  0  0  0  0  0  0  0  0  0  0
    5.7158   -6.6000    0.0000 N   0  0  0  0  0  0  0  0  0  0  0  0
    6.4302   -6.1875    0.0000 C   0  0  0  0  0  0  0  0  0  0  0  0
    7.1447   -6.6000    0.0000 C   0  0  0  0  0  0  0  0  0  0  0  0
    7.1447   -7.4250    0.0000 N   0  0  0  0  0  0  0  0  0  0  0  0
    6.4302   -7.8375    0.0000 C   0  0  0  0  0  0  0  0  0  0  0  0
    5.7158   -7.4250    0.0000 C   0  0  0  0  0  0  0  0  0  0  0  0
    7.8592   -7.8375    0.0000 C   0  0  0  0  0  0  0  0  0  0  0  0
    8.5737   -7.4250    0.0000 C   0  0  0  0  0  0  0  0  0  0  0  0
    9.2881   -7.8375    0.0000 C   0  0  0  0  0  0  0  0  0  0  0  0
    9.2881   -8.6625    0.0000 C   0  0  0  0  0  0  0  0  0  0  0  0
    8.5737   -9.0750    0.0000 C   0  0  0  0  0  0  0  0  0  0  0  0
    7.8592   -8.6625    0.0000 C   0  0  0  0  0  0  0  0  0  0  0  0
    7.1447   -9.0750    0.0000 O   0  0  0  0  0  0  0  0  0  0  0  0
    6.4302   -8.6625    0.0000 C   0  0  0  0  0  0  0  0  0  0  0  0
    0.0000   -9.0750    0.0000 C   0  0  0  0  0  0  0  0  0  0  0  0
  1  2  1  0  0  0  0
  2  3  1  0  0  0  0
  3  4  2  0  0  0  0
  3 36  1  0  0  0  0
  4  5  1  0  0  0  0
  5  6  2  0  0  0  0
  6  7  1  0  0  0  0
  7  8  1  0  0  0  0
  7 36  2  0  0  0  0
  8  9  1  0  0  0  0
  9 10  1  0  0  0  0
 10 11  2  0  0  0  0
 10 15  1  0  0  0  0
 11 12  1  0  0  0  0
 12 13  2  0  0  0  0
 13 14  1  0  0  0  0
 14 15  2  0  0  0  0
 15 16  1  0  0  0  0
 16 17  1  0  0  0  0
 17 18  1  0  0  0  0
 18 19  1  0  0  0  0
 19 20  1  0  0  0  0
 20 21  1  0  0  0  0
 21 22  1  0  0  0  0
 22 23  1  0  0  0  0
 22 27  1  0  0  0  0
 23 24  1  0  0  0  0
 24 25  1  0  0  0  0
 25 26  1  0  0  0  0
 25 28  1  0  0  0  0
 26 27  1  0  0  0  0
 28 29  2  0  0  0  0
 28 33  1  0  0  0  0
 29 30  1  0  0  0  0
 30 31  2  0  0  0  0
 31 32  1  0  0  0  0
 32 33  2  0  0  0  0
 33 34  1  0  0  0  0
 34 35  1  0  0  0  0
M  END
$$$$

 OpenBabel12191814062D

 34 37  0  0  0  0  0  0  0  0999 V2000
    0.7145  -11.1375    0.0000 C   0  0  0  0  0  0  0  0  0  0  0  0
    0.7145  -10.3125    0.0000 O   0  0  0  0  0  0  0  0  0  0  0  0
    0.0000   -9.9000    0.0000 C   0  0  0  0  0  0  0  0  0  0  0  0
   -0.7145  -10.3125    0.0000 C   0  0  0  0  0  0  0  0  0  0  0  0
   -1.4289   -9.9000    0.0000 C   0  0  0  0  0  0  0  0  0  0  0  0
   -1.4289   -9.0750    0.0000 C   0  0  0  0  0  0  0  0  0  0  0  0
   -0.7145   -8.6625    0.0000 C   0  0  0  0  0  0  0  0  0  0  0  0
   -0.7145   -7.8375    0.0000 C   0  0  0  0  0  0  0  0  0  0  0  0
    0.0000   -7.4250    0.0000 C   0  0  0  0  0  0  0  0  0  0  0  0
    0.0000   -6.6000    0.0000 C   0  0  0  0  0  0  0  0  0  0  0  0
   -0.7145   -6.1875    0.0000 C   0  0  0  0  0  0  0  0  0  0  0  0
   -0.7145   -5.3625    0.0000 C   0  0  0  0  0  0  0  0  0  0  0  0
    0.0000   -4.9500    0.0000 C   0  0  0  0  0  0  0  0  0  0  0  0
    0.7145   -5.3625    0.0000 C   0  0  0  0  0  0  0  0  0  0  0  0
    0.7145   -6.1875    0.0000 C   0  0  0  0  0  0  0  0  0  0  0  0
    1.4289   -6.6000    0.0000 O   0  0  0  0  0  0  0  0  0  0  0  0
    2.1434   -6.1875    0.0000 C   0  0  0  0  0  0  0  0  0  0  0  0
    2.8579   -6.6000    0.0000 C   0  0  0  0  0  0  0  0  0  0  0  0
    3.5724   -6.1875    0.0000 C   0  0  0  0  0  0  0  0  0  0  0  0
    4.2868   -6.6000    0.0000 C   0  0  0  0  0  0  0  0  0  0  0  0
    5.0013   -6.1875    0.0000 C   0  0  0  0  0  0  0  0  0  0  0  0
    5.7158   -6.6000    0.0000 N   0  0  0  0  0  0  0  0  0  0  0  0
    6.4302   -6.1875    0.0000 C   0  0  0  0  0  0  0  0  0  0  0  0
    7.1447   -6.6000    0.0000 C   0  0  0  0  0  0  0  0  0  0  0  0
    7.1447   -7.4250    0.0000 N   0  0  0  0  0  0  0  0  0  0  0  0
    6.4302   -7.8375    0.0000 C   0  0  0  0  0  0  0  0  0  0  0  0
    5.7158   -7.4250    0.0000 C   0  0  0  0  0  0  0  0  0  0  0  0
    7.8592   -7.8375    0.0000 C   0  0  0  0  0  0  0  0  0  0  0  0
    8.5737   -7.4250    0.0000 N   0  0  0  0  0  0  0  0  0  0  0  0
    9.2881   -7.8375    0.0000 C   0  0  0  0  0  0  0  0  0  0  0  0
    9.2881   -8.6625    0.0000 C   0  0  0  0  0  0  0  0  0  0  0  0
    8.5737   -9.0750    0.0000 C   0  0  0  0  0  0  0  0  0  0  0  0
    7.8592   -8.6625    0.0000 N   0  0  0  0  0  0  0  0  0  0  0  0
    0.0000   -9.0750    0.0000 C   0  0  0  0  0  0  0  0  0  0  0  0
  1  2  1  0  0  0  0
  2  3  1  0  0  0  0
  3  4  2  0  0  0  0
  3 34  1  0  0  0  0
  4  5  1  0  0  0  0
  5  6  2  0  0  0  0
  6  7  1  0  0  0  0
  7  8  1  0  0  0  0
  7 34  2  0  0  0  0
  8  9  1  0  0  0  0
  9 10  1  0  0  0  0
 10 11  2  0  0  0  0
 10 15  1  0  0  0  0
 11 12  1  0  0  0  0
 12 13  2  0  0  0  0
 13 14  1  0  0  0  0
 14 15  2  0  0  0  0
 15 16  1  0  0  0  0
 16 17  1  0  0  0  0
 17 18  1  0  0  0  0
 18 19  1  0  0  0  0
 19 20  1  0  0  0  0
 20 21  1  0  0  0  0
 21 22  1  0  0  0  0
 22 23  1  0  0  0  0
 22 27  1  0  0  0  0
 23 24  1  0  0  0  0
 24 25  1  0  0  0  0
 25 26  1  0  0  0  0
 25 28  1  0  0  0  0
 26 27  1  0  0  0  0
 28 29  2  0  0  0  0
 28 33  1  0  0  0  0
 29 30  1  0  0  0  0
 30 31  2  0  0  0  0
 31 32  1  0  0  0  0
 32 33  2  0  0  0  0
M  END
$$$$

 OpenBabel12191814062D

 35 38  0  0  0  0  0  0  0  0999 V2000
    9.2881   -4.5375    0.0000 C   0  0  0  0  0  0  0  0  0  0  0  0
    8.5737   -4.1250    0.0000 O   0  0  0  0  0  0  0  0  0  0  0  0
    7.8592   -4.5375    0.0000 C   0  0  0  0  0  0  0  0  0  0  0  0
    7.8592   -5.3625    0.0000 C   0  0  0  0  0  0  0  0  0  0  0  0
    7.1447   -5.7750    0.0000 C   0  0  0  0  0  0  0  0  0  0  0  0
    6.4302   -5.3625    0.0000 C   0  0  0  0  0  0  0  0  0  0  0  0
    6.4302   -4.5375    0.0000 C   0  0  0  0  0  0  0  0  0  0  0  0
    5.7158   -4.1250    0.0000 C   0  0  0  0  0  0  0  0  0  0  0  0
    5.7158   -3.3000    0.0000 C   0  0  0  0  0  0  0  0  0  0  0  0
    5.0013   -2.8875    0.0000 C   0  0  0  0  0  0  0  0  0  0  0  0
    4.2868   -3.3000    0.0000 C   0  0  0  0  0  0  0  0  0  0  0  0
    3.5724   -2.8875    0.0000 C   0  0  0  0  0  0  0  0  0  0  0  0
    3.5724   -2.0625    0.0000 C   0  0  0  0  0  0  0  0  0  0  0  0
    4.2868   -1.6500    0.0000 C   0  0  0  0  0  0  0  0  0  0  0  0
    5.0013   -2.0625    0.0000 C   0  0  0  0  0  0  0  0  0  0  0  0
    5.7158   -1.6500    0.0000 O   0  0  0  0  0  0  0  0  0  0  0  0
    6.4302   -2.0625    0.0000 C   0  0  0  0  0  0  0  0  0  0  0  0
    7.1447   -1.6500    0.0000 C   0  0  0  0  0  0  0  0  0  0  0  0
    7.8592   -2.0625    0.0000 C   0  0  0  0  0  0  0  0  0  0  0  0
    8.5737   -1.6500    0.0000 C   0  0  0  0  0  0  0  0  0  0  0  0
    9.2881   -2.0625    0.0000 N   0  0  0  0  0  0  0  0  0  0  0  0
   10.0026   -1.6500    0.0000 C   0  0  0  0  0  0  0  0  0  0  0  0
   10.7171   -2.0625    0.0000 C   0  0  0  0  0  0  0  0  0  0  0  0
   10.7171   -2.8875    0.0000 C   0  0  0  0  0  0  0  0  0  0  0  0
   11.4315   -3.3000    0.0000 C   0  0  0  0  0  0  0  0  0  0  0  0
   11.4315   -4.1250    0.0000 C   0  0  0  0  0  0  0  0  0  0  0  0
   12.1460   -4.5375    0.0000 O   0  0  0  0  0  0  0  0  0  0  0  0
   12.8605   -4.1250    0.0000 C   0  0  0  0  0  0  0  0  0  0  0  0
   10.7171   -4.5375    0.0000 C   0  0  0  0  0  0  0  0  0  0  0  0
   10.7171   -5.3625    0.0000 O   0  0  0  0  0  0  0  0  0  0  0  0
   10.0026   -5.7750    0.0000 C   0  0  0  0  0  0  0  0  0  0  0  0
   10.0026   -4.1250    0.0000 C   0  0  0  0  0  0  0  0  0  0  0  0
   10.0026   -3.3000    0.0000 C   0  0  0  0  0  0  0  0  0  0  0  0
    9.2881   -2.8875    0.0000 C   0  0  0  0  0  0  0  0  0  0  0  0
    7.1447   -4.1250    0.0000 C   0  0  0  0  0  0  0  0  0  0  0  0
  1  2  1  0  0  0  0
  2  3  1  0  0  0  0
  3  4  2  0  0  0  0
  3 35  1  0  0  0  0
  4  5  1  0  0  0  0
  5  6  2  0  0  0  0
  6  7  1  0  0  0  0
  7  8  1  0  0  0  0
  7 35  2  0  0  0  0
  8  9  1  0  0  0  0
  9 10  1  0  0  0  0
 10 11  2  0  0  0  0
 10 15  1  0  0  0  0
 11 12  1  0  0  0  0
 12 13  2  0  0  0  0
 13 14  1  0  0  0  0
 14 15  2  0  0  0  0
 15 16  1  0  0  0  0
 16 17  1  0  0  0  0
 17 18  1  0  0  0  0
 18 19  1  0  0  0  0
 19 20  1  0  0  0  0
 20 21  1  0  0  0  0
 21 22  1  0  0  0  0
 21 34  1  0  0  0  0
 22 23  1  0  0  0  0
 23 24  1  0  0  0  0
 24 25  2  0  0  0  0
 24 33  1  0  0  0  0
 25 26  1  0  0  0  0
 26 27  1  0  0  0  0
 26 29  2  0  0  0  0
 27 28  1  0  0  0  0
 29 30  1  0  0  0  0
 29 32  1  0  0  0  0
 30 31  1  0  0  0  0
 32 33  2  0  0  0  0
 33 34  1  0  0  0  0
M  END
$$$$

 OpenBabel12191814062D

 31 34  0  0  0  0  0  0  0  0999 V2000
    9.2881   -4.5375    0.0000 C   0  0  0  0  0  0  0  0  0  0  0  0
    8.5737   -4.1250    0.0000 O   0  0  0  0  0  0  0  0  0  0  0  0
    7.8592   -4.5375    0.0000 C   0  0  0  0  0  0  0  0  0  0  0  0
    7.8592   -5.3625    0.0000 C   0  0  0  0  0  0  0  0  0  0  0  0
    7.1447   -5.7750    0.0000 C   0  0  0  0  0  0  0  0  0  0  0  0
    6.4302   -5.3625    0.0000 C   0  0  0  0  0  0  0  0  0  0  0  0
    6.4302   -4.5375    0.0000 C   0  0  0  0  0  0  0  0  0  0  0  0
    5.7158   -4.1250    0.0000 C   0  0  0  0  0  0  0  0  0  0  0  0
    5.7158   -3.3000    0.0000 C   0  0  0  0  0  0  0  0  0  0  0  0
    5.0013   -2.8875    0.0000 C   0  0  0  0  0  0  0  0  0  0  0  0
    4.2868   -3.3000    0.0000 C   0  0  0  0  0  0  0  0  0  0  0  0
    3.5724   -2.8875    0.0000 C   0  0  0  0  0  0  0  0  0  0  0  0
    3.5724   -2.0625    0.0000 C   0  0  0  0  0  0  0  0  0  0  0  0
    4.2868   -1.6500    0.0000 C   0  0  0  0  0  0  0  0  0  0  0  0
    5.0013   -2.0625    0.0000 C   0  0  0  0  0  0  0  0  0  0  0  0
    5.7158   -1.6500    0.0000 O   0  0  0  0  0  0  0  0  0  0  0  0
    6.4302   -2.0625    0.0000 C   0  0  0  0  0  0  0  0  0  0  0  0
    7.1447   -1.6500    0.0000 C   0  0  0  0  0  0  0  0  0  0  0  0
    7.8592   -2.0625    0.0000 C   0  0  0  0  0  0  0  0  0  0  0  0
    8.5737   -1.6500    0.0000 C   0  0  0  0  0  0  0  0  0  0  0  0
    9.2881   -2.0625    0.0000 N   0  0  0  0  0  0  0  0  0  0  0  0
   10.0026   -1.6500    0.0000 C   0  0  0  0  0  0  0  0  0  0  0  0
   10.7171   -2.0625    0.0000 C   0  0  0  0  0  0  0  0  0  0  0  0
   10.7171   -2.8875    0.0000 C   0  0  0  0  0  0  0  0  0  0  0  0
   11.4315   -3.3000    0.0000 C   0  0  0  0  0  0  0  0  0  0  0  0
   11.4315   -4.1250    0.0000 C   0  0  0  0  0  0  0  0  0  0  0  0
   10.7171   -4.5375    0.0000 C   0  0  0  0  0  0  0  0  0  0  0  0
   10.0026   -4.1250    0.0000 C   0  0  0  0  0  0  0  0  0  0  0  0
   10.0026   -3.3000    0.0000 C   0  0  0  0  0  0  0  0  0  0  0  0
    9.2881   -2.8875    0.0000 C   0  0  0  0  0  0  0  0  0  0  0  0
    7.1447   -4.1250    0.0000 C   0  0  0  0  0  0  0  0  0  0  0  0
  1  2  1  0  0  0  0
  2  3  1  0  0  0  0
  3  4  2  0  0  0  0
  3 31  1  0  0  0  0
  4  5  1  0  0  0  0
  5  6  2  0  0  0  0
  6  7  1  0  0  0  0
  7  8  1  0  0  0  0
  7 31  2  0  0  0  0
  8  9  1  0  0  0  0
  9 10  1  0  0  0  0
 10 11  2  0  0  0  0
 10 15  1  0  0  0  0
 11 12  1  0  0  0  0
 12 13  2  0  0  0  0
 13 14  1  0  0  0  0
 14 15  2  0  0  0  0
 15 16  1  0  0  0  0
 16 17  1  0  0  0  0
 17 18  1  0  0  0  0
 18 19  1  0  0  0  0
 19 20  1  0  0  0  0
 20 21  1  0  0  0  0
 21 22  1  0  0  0  0
 21 30  1  0  0  0  0
 22 23  1  0  0  0  0
 23 24  1  0  0  0  0
 24 25  2  0  0  0  0
 24 29  1  0  0  0  0
 25 26  1  0  0  0  0
 26 27  2  0  0  0  0
 27 28  1  0  0  0  0
 28 29  2  0  0  0  0
 29 30  1  0  0  0  0
M  END
$$$$

 OpenBabel12191814062D

 28 30  0  0  0  0  0  0  0  0999 V2000
    5.7158   -6.6000    0.0000 C   0  0  0  0  0  0  0  0  0  0  0  0
    5.0013   -6.1875    0.0000 O   0  0  0  0  0  0  0  0  0  0  0  0
    4.2868   -6.6000    0.0000 C   0  0  0  0  0  0  0  0  0  0  0  0
    4.2868   -7.4250    0.0000 C   0  0  0  0  0  0  0  0  0  0  0  0
    3.5724   -7.8375    0.0000 C   0  0  0  0  0  0  0  0  0  0  0  0
    2.8579   -7.4250    0.0000 C   0  0  0  0  0  0  0  0  0  0  0  0
    2.8579   -6.6000    0.0000 C   0  0  0  0  0  0  0  0  0  0  0  0
    2.1434   -6.1875    0.0000 C   0  0  0  0  0  0  0  0  0  0  0  0
    2.1434   -5.3625    0.0000 C   0  0  0  0  0  0  0  0  0  0  0  0
    1.4289   -4.9500    0.0000 C   0  0  0  0  0  0  0  0  0  0  0  0
    0.7145   -5.3625    0.0000 C   0  0  0  0  0  0  0  0  0  0  0  0
    0.0000   -4.9500    0.0000 C   0  0  0  0  0  0  0  0  0  0  0  0
    0.0000   -4.1250    0.0000 C   0  0  0  0  0  0  0  0  0  0  0  0
    0.7145   -3.7125    0.0000 C   0  0  0  0  0  0  0  0  0  0  0  0
    1.4289   -4.1250    0.0000 C   0  0  0  0  0  0  0  0  0  0  0  0
    2.1434   -3.7125    0.0000 O   0  0  0  0  0  0  0  0  0  0  0  0
    2.8579   -4.1250    0.0000 C   0  0  0  0  0  0  0  0  0  0  0  0
    3.5724   -3.7125    0.0000 C   0  0  0  0  0  0  0  0  0  0  0  0
    4.2868   -4.1250    0.0000 C   0  0  0  0  0  0  0  0  0  0  0  0
    5.0013   -3.7125    0.0000 C   0  0  0  0  0  0  0  0  0  0  0  0
    5.7158   -4.1250    0.0000 N   0  0  0  0  0  0  0  0  0  0  0  0
    6.4302   -3.7125    0.0000 C   0  0  0  0  0  0  0  0  0  0  0  0
    7.1447   -4.1250    0.0000 C   0  0  0  0  0  0  0  0  0  0  0  0
    7.1447   -4.9500    0.0000 N   0  0  0  0  0  0  0  0  0  0  0  0
    7.8592   -5.3625    0.0000 C   0  0  0  0  0  0  0  0  0  0  0  0
    6.4302   -5.3625    0.0000 C   0  0  0  0  0  0  0  0  0  0  0  0
    5.7158   -4.9500    0.0000 C   0  0  0  0  0  0  0  0  0  0  0  0
    3.5724   -6.1875    0.0000 C   0  0  0  0  0  0  0  0  0  0  0  0
  1  2  1  0  0  0  0
  2  3  1  0  0  0  0
  3  4  2  0  0  0  0
  3 28  1  0  0  0  0
  4  5  1  0  0  0  0
  5  6  2  0  0  0  0
  6  7  1  0  0  0  0
  7  8  1  0  0  0  0
  7 28  2  0  0  0  0
  8  9  1  0  0  0  0
  9 10  1  0  0  0  0
 10 11  2  0  0  0  0
 10 15  1  0  0  0  0
 11 12  1  0  0  0  0
 12 13  2  0  0  0  0
 13 14  1  0  0  0  0
 14 15  2  0  0  0  0
 15 16  1  0  0  0  0
 16 17  1  0  0  0  0
 17 18  1  0  0  0  0
 18 19  1  0  0  0  0
 19 20  1  0  0  0  0
 20 21  1  0  0  0  0
 21 22  1  0  0  0  0
 21 27  1  0  0  0  0
 22 23  1  0  0  0  0
 23 24  1  0  0  0  0
 24 25  1  0  0  0  0
 24 26  1  0  0  0  0
 26 27  1  0  0  0  0
M  END
$$$$

 OpenBabel12191814062D

 34 37  0  0  0  0  0  0  0  0999 V2000
    5.7158   -9.0750    0.0000 C   0  0  0  0  0  0  0  0  0  0  0  0
    5.0013   -8.6625    0.0000 O   0  0  0  0  0  0  0  0  0  0  0  0
    4.2868   -9.0750    0.0000 C   0  0  0  0  0  0  0  0  0  0  0  0
    4.2868   -9.9000    0.0000 C   0  0  0  0  0  0  0  0  0  0  0  0
    3.5724  -10.3125    0.0000 C   0  0  0  0  0  0  0  0  0  0  0  0
    2.8579   -9.9000    0.0000 C   0  0  0  0  0  0  0  0  0  0  0  0
    2.8579   -9.0750    0.0000 C   0  0  0  0  0  0  0  0  0  0  0  0
    2.1434   -8.6625    0.0000 C   0  0  0  0  0  0  0  0  0  0  0  0
    2.1434   -7.8375    0.0000 C   0  0  0  0  0  0  0  0  0  0  0  0
    1.4289   -7.4250    0.0000 C   0  0  0  0  0  0  0  0  0  0  0  0
    0.7145   -7.8375    0.0000 C   0  0  0  0  0  0  0  0  0  0  0  0
    0.0000   -7.4250    0.0000 C   0  0  0  0  0  0  0  0  0  0  0  0
    0.0000   -6.6000    0.0000 C   0  0  0  0  0  0  0  0  0  0  0  0
    0.7145   -6.1875    0.0000 C   0  0  0  0  0  0  0  0  0  0  0  0
    1.4289   -6.6000    0.0000 C   0  0  0  0  0  0  0  0  0  0  0  0
    2.1434   -6.1875    0.0000 O   0  0  0  0  0  0  0  0  0  0  0  0
    2.8579   -6.6000    0.0000 C   0  0  0  0  0  0  0  0  0  0  0  0
    3.5724   -6.1875    0.0000 C   0  0  0  0  0  0  0  0  0  0  0  0
    4.2868   -6.6000    0.0000 C   0  0  0  0  0  0  0  0  0  0  0  0
    5.0013   -6.1875    0.0000 C   0  0  0  0  0  0  0  0  0  0  0  0
    5.7158   -6.6000    0.0000 N   0  0  0  0  0  0  0  0  0  0  0  0
    6.4302   -6.1875    0.0000 C   0  0  0  0  0  0  0  0  0  0  0  0
    7.1447   -6.6000    0.0000 C   0  0  0  0  0  0  0  0  0  0  0  0
    7.1447   -7.4250    0.0000 N   0  0  0  0  0  0  0  0  0  0  0  0
    6.4302   -7.8375    0.0000 C   0  0  0  0  0  0  0  0  0  0  0  0
    5.7158   -7.4250    0.0000 C   0  0  0  0  0  0  0  0  0  0  0  0
    7.8592   -7.8375    0.0000 C   0  0  0  0  0  0  0  0  0  0  0  0
    8.5737   -7.4250    0.0000 C   0  0  0  0  0  0  0  0  0  0  0  0
    9.2881   -7.8375    0.0000 C   0  0  0  0  0  0  0  0  0  0  0  0
    9.2881   -8.6625    0.0000 C   0  0  0  0  0  0  0  0  0  0  0  0
   10.0026   -9.0750    0.0000 F   0  0  0  0  0  0  0  0  0  0  0  0
    8.5737   -9.0750    0.0000 C   0  0  0  0  0  0  0  0  0  0  0  0
    7.8592   -8.6625    0.0000 C   0  0  0  0  0  0  0  0  0  0  0  0
    3.5724   -8.6625    0.0000 C   0  0  0  0  0  0  0  0  0  0  0  0
  1  2  1  0  0  0  0
  2  3  1  0  0  0  0
  3  4  2  0  0  0  0
  3 34  1  0  0  0  0
  4  5  1  0  0  0  0
  5  6  2  0  0  0  0
  6  7  1  0  0  0  0
  7  8  1  0  0  0  0
  7 34  2  0  0  0  0
  8  9  1  0  0  0  0
  9 10  1  0  0  0  0
 10 11  2  0  0  0  0
 10 15  1  0  0  0  0
 11 12  1  0  0  0  0
 12 13  2  0  0  0  0
 13 14  1  0  0  0  0
 14 15  2  0  0  0  0
 15 16  1  0  0  0  0
 16 17  1  0  0  0  0
 17 18  1  0  0  0  0
 18 19  1  0  0  0  0
 19 20  1  0  0  0  0
 20 21  1  0  0  0  0
 21 22  1  0  0  0  0
 21 26  1  0  0  0  0
 22 23  1  0  0  0  0
 23 24  1  0  0  0  0
 24 25  1  0  0  0  0
 24 27  1  0  0  0  0
 25 26  1  0  0  0  0
 27 28  2  0  0  0  0
 27 33  1  0  0  0  0
 28 29  1  0  0  0  0
 29 30  2  0  0  0  0
 30 31  1  0  0  0  0
 30 32  1  0  0  0  0
 32 33  2  0  0  0  0
M  END
$$$$

 OpenBabel12191814062D

 37 40  0  0  0  0  0  0  0  0999 V2000
   -2.1434   -7.8375    0.0000 C   0  0  0  0  0  0  0  0  0  0  0  0
   -1.4289   -7.4250    0.0000 O   0  0  0  0  0  0  0  0  0  0  0  0
   -1.4289   -6.6000    0.0000 C   0  0  0  0  0  0  0  0  0  0  0  0
   -2.1434   -6.1875    0.0000 C   0  0  0  0  0  0  0  0  0  0  0  0
   -2.1434   -5.3625    0.0000 C   0  0  0  0  0  0  0  0  0  0  0  0
   -1.4289   -4.9500    0.0000 C   0  0  0  0  0  0  0  0  0  0  0  0
   -0.7145   -5.3625    0.0000 C   0  0  0  0  0  0  0  0  0  0  0  0
    0.0000   -4.9500    0.0000 C   0  0  0  0  0  0  0  0  0  0  0  0
    0.7145   -5.3625    0.0000 C   0  0  0  0  0  0  0  0  0  0  0  0
    1.4289   -4.9500    0.0000 C   0  0  0  0  0  0  0  0  0  0  0  0
    1.4289   -4.1250    0.0000 C   0  0  0  0  0  0  0  0  0  0  0  0
    2.1434   -3.7125    0.0000 C   0  0  0  0  0  0  0  0  0  0  0  0
    2.8579   -4.1250    0.0000 C   0  0  0  0  0  0  0  0  0  0  0  0
    2.8579   -4.9500    0.0000 C   0  0  0  0  0  0  0  0  0  0  0  0
    2.1434   -5.3625    0.0000 C   0  0  0  0  0  0  0  0  0  0  0  0
    2.1434   -6.1875    0.0000 O   0  0  0  0  0  0  0  0  0  0  0  0
    2.8579   -6.6000    0.0000 C   0  0  0  0  0  0  0  0  0  0  0  0
    3.5724   -6.1875    0.0000 C   0  0  0  0  0  0  0  0  0  0  0  0
    4.2868   -6.6000    0.0000 C   0  0  0  0  0  0  0  0  0  0  0  0
    5.0013   -6.1875    0.0000 C   0  0  0  0  0  0  0  0  0  0  0  0
    5.7158   -6.6000    0.0000 N   0  0  0  0  0  0  0  0  0  0  0  0
    6.4302   -6.1875    0.0000 C   0  0  0  0  0  0  0  0  0  0  0  0
    7.1447   -6.6000    0.0000 C   0  0  0  0  0  0  0  0  0  0  0  0
    7.1447   -7.4250    0.0000 N   0  0  0  0  0  0  0  0  0  0  0  0
    6.4302   -7.8375    0.0000 C   0  0  0  0  0  0  0  0  0  0  0  0
    5.7158   -7.4250    0.0000 C   0  0  0  0  0  0  0  0  0  0  0  0
    7.8592   -7.8375    0.0000 C   0  0  0  0  0  0  0  0  0  0  0  0
    8.5737   -7.4250    0.0000 C   0  0  0  0  0  0  0  0  0  0  0  0
    9.2881   -7.8375    0.0000 C   0  0  0  0  0  0  0  0  0  0  0  0
    9.2881   -8.6625    0.0000 C   0  0  0  0  0  0  0  0  0  0  0  0
    8.5737   -9.0750    0.0000 C   0  0  0  0  0  0  0  0  0  0  0  0
    7.8592   -8.6625    0.0000 C   0  0  0  0  0  0  0  0  0  0  0  0
    8.5737   -9.9000    0.0000 C   0  0  0  0  0  0  0  0  0  0  0  0
    8.5737  -10.7250    0.0000 F   0  0  0  0  0  0  0  0  0  0  0  0
    7.7487   -9.9000    0.0000 F   0  0  0  0  0  0  0  0  0  0  0  0
    9.3987   -9.9000    0.0000 F   0  0  0  0  0  0  0  0  0  0  0  0
   -0.7145   -6.1875    0.0000 C   0  0  0  0  0  0  0  0  0  0  0  0
  1  2  1  0  0  0  0
  2  3  1  0  0  0  0
  3  4  2  0  0  0  0
  3 37  1  0  0  0  0
  4  5  1  0  0  0  0
  5  6  2  0  0  0  0
  6  7  1  0  0  0  0
  7  8  1  0  0  0  0
  7 37  2  0  0  0  0
  8  9  1  0  0  0  0
  9 10  1  0  0  0  0
 10 11  2  0  0  0  0
 10 15  1  0  0  0  0
 11 12  1  0  0  0  0
 12 13  2  0  0  0  0
 13 14  1  0  0  0  0
 14 15  2  0  0  0  0
 15 16  1  0  0  0  0
 16 17  1  0  0  0  0
 17 18  1  0  0  0  0
 18 19  1  0  0  0  0
 19 20  1  0  0  0  0
 20 21  1  0  0  0  0
 21 22  1  0  0  0  0
 21 26  1  0  0  0  0
 22 23  1  0  0  0  0
 23 24  1  0  0  0  0
 24 25  1  0  0  0  0
 24 27  1  0  0  0  0
 25 26  1  0  0  0  0
 27 28  2  0  0  0  0
 27 32  1  0  0  0  0
 28 29  1  0  0  0  0
 29 30  2  0  0  0  0
 30 31  1  0  0  0  0
 31 32  2  0  0  0  0
 31 33  1  0  0  0  0
 33 34  1  0  0  0  0
 33 35  1  0  0  0  0
 33 36  1  0  0  0  0
M  END
$$$$

 OpenBabel12191814062D

 34 37  0  0  0  0  0  0  0  0999 V2000
    5.7158   -9.0750    0.0000 C   0  0  0  0  0  0  0  0  0  0  0  0
    5.0013   -8.6625    0.0000 O   0  0  0  0  0  0  0  0  0  0  0  0
    4.2868   -9.0750    0.0000 C   0  0  0  0  0  0  0  0  0  0  0  0
    4.2868   -9.9000    0.0000 C   0  0  0  0  0  0  0  0  0  0  0  0
    3.5724  -10.3125    0.0000 C   0  0  0  0  0  0  0  0  0  0  0  0
    2.8579   -9.9000    0.0000 C   0  0  0  0  0  0  0  0  0  0  0  0
    2.8579   -9.0750    0.0000 C   0  0  0  0  0  0  0  0  0  0  0  0
    2.1434   -8.6625    0.0000 C   0  0  0  0  0  0  0  0  0  0  0  0
    2.1434   -7.8375    0.0000 C   0  0  0  0  0  0  0  0  0  0  0  0
    1.4289   -7.4250    0.0000 C   0  0  0  0  0  0  0  0  0  0  0  0
    0.7145   -7.8375    0.0000 C   0  0  0  0  0  0  0  0  0  0  0  0
    0.0000   -7.4250    0.0000 C   0  0  0  0  0  0  0  0  0  0  0  0
    0.0000   -6.6000    0.0000 C   0  0  0  0  0  0  0  0  0  0  0  0
    0.7145   -6.1875    0.0000 C   0  0  0  0  0  0  0  0  0  0  0  0
    1.4289   -6.6000    0.0000 C   0  0  0  0  0  0  0  0  0  0  0  0
    2.1434   -6.1875    0.0000 O   0  0  0  0  0  0  0  0  0  0  0  0
    2.8579   -6.6000    0.0000 C   0  0  0  0  0  0  0  0  0  0  0  0
    3.5724   -6.1875    0.0000 C   0  0  0  0  0  0  0  0  0  0  0  0
    4.2868   -6.6000    0.0000 C   0  0  0  0  0  0  0  0  0  0  0  0
    5.0013   -6.1875    0.0000 C   0  0  0  0  0  0  0  0  0  0  0  0
    5.7158   -6.6000    0.0000 N   0  0  0  0  0  0  0  0  0  0  0  0
    6.4302   -6.1875    0.0000 C   0  0  0  0  0  0  0  0  0  0  0  0
    7.1447   -6.6000    0.0000 C   0  0  0  0  0  0  0  0  0  0  0  0
    7.1447   -7.4250    0.0000 N   0  0  0  0  0  0  0  0  0  0  0  0
    6.4302   -7.8375    0.0000 C   0  0  0  0  0  0  0  0  0  0  0  0
    5.7158   -7.4250    0.0000 C   0  0  0  0  0  0  0  0  0  0  0  0
    7.8592   -7.8375    0.0000 C   0  0  0  0  0  0  0  0  0  0  0  0
    8.5737   -7.4250    0.0000 C   0  0  0  0  0  0  0  0  0  0  0  0
    9.2881   -7.8375    0.0000 C   0  0  0  0  0  0  0  0  0  0  0  0
    9.2881   -8.6625    0.0000 C   0  0  0  0  0  0  0  0  0  0  0  0
    8.5737   -9.0750    0.0000 C   0  0  0  0  0  0  0  0  0  0  0  0
    8.5737   -9.9000    0.0000 Cl  0  0  0  0  0  0  0  0  0  0  0  0
    7.8592   -8.6625    0.0000 C   0  0  0  0  0  0  0  0  0  0  0  0
    3.5724   -8.6625    0.0000 C   0  0  0  0  0  0  0  0  0  0  0  0
  1  2  1  0  0  0  0
  2  3  1  0  0  0  0
  3  4  2  0  0  0  0
  3 34  1  0  0  0  0
  4  5  1  0  0  0  0
  5  6  2  0  0  0  0
  6  7  1  0  0  0  0
  7  8  1  0  0  0  0
  7 34  2  0  0  0  0
  8  9  1  0  0  0  0
  9 10  1  0  0  0  0
 10 11  2  0  0  0  0
 10 15  1  0  0  0  0
 11 12  1  0  0  0  0
 12 13  2  0  0  0  0
 13 14  1  0  0  0  0
 14 15  2  0  0  0  0
 15 16  1  0  0  0  0
 16 17  1  0  0  0  0
 17 18  1  0  0  0  0
 18 19  1  0  0  0  0
 19 20  1  0  0  0  0
 20 21  1  0  0  0  0
 21 22  1  0  0  0  0
 21 26  1  0  0  0  0
 22 23  1  0  0  0  0
 23 24  1  0  0  0  0
 24 25  1  0  0  0  0
 24 27  1  0  0  0  0
 25 26  1  0  0  0  0
 27 28  2  0  0  0  0
 27 33  1  0  0  0  0
 28 29  1  0  0  0  0
 29 30  2  0  0  0  0
 30 31  1  0  0  0  0
 31 32  1  0  0  0  0
 31 33  2  0  0  0  0
M  END
$$$$

 OpenBabel12191814062D

 35 38  0  0  0  0  0  0  0  0999 V2000
    5.7158   -9.0750    0.0000 C   0  0  0  0  0  0  0  0  0  0  0  0
    5.0013   -8.6625    0.0000 O   0  0  0  0  0  0  0  0  0  0  0  0
    4.2868   -9.0750    0.0000 C   0  0  0  0  0  0  0  0  0  0  0  0
    4.2868   -9.9000    0.0000 C   0  0  0  0  0  0  0  0  0  0  0  0
    3.5724  -10.3125    0.0000 C   0  0  0  0  0  0  0  0  0  0  0  0
    2.8579   -9.9000    0.0000 C   0  0  0  0  0  0  0  0  0  0  0  0
    2.8579   -9.0750    0.0000 C   0  0  0  0  0  0  0  0  0  0  0  0
    2.1434   -8.6625    0.0000 C   0  0  0  0  0  0  0  0  0  0  0  0
    2.1434   -7.8375    0.0000 C   0  0  0  0  0  0  0  0  0  0  0  0
    1.4289   -7.4250    0.0000 C   0  0  0  0  0  0  0  0  0  0  0  0
    0.7145   -7.8375    0.0000 C   0  0  0  0  0  0  0  0  0  0  0  0
    0.0000   -7.4250    0.0000 C   0  0  0  0  0  0  0  0  0  0  0  0
    0.0000   -6.6000    0.0000 C   0  0  0  0  0  0  0  0  0  0  0  0
    0.7145   -6.1875    0.0000 C   0  0  0  0  0  0  0  0  0  0  0  0
    1.4289   -6.6000    0.0000 C   0  0  0  0  0  0  0  0  0  0  0  0
    2.1434   -6.1875    0.0000 O   0  0  0  0  0  0  0  0  0  0  0  0
    2.8579   -6.6000    0.0000 C   0  0  0  0  0  0  0  0  0  0  0  0
    3.5724   -6.1875    0.0000 C   0  0  0  0  0  0  0  0  0  0  0  0
    4.2868   -6.6000    0.0000 C   0  0  0  0  0  0  0  0  0  0  0  0
    5.0013   -6.1875    0.0000 C   0  0  0  0  0  0  0  0  0  0  0  0
    5.7158   -6.6000    0.0000 N   0  0  0  0  0  0  0  0  0  0  0  0
    6.4302   -6.1875    0.0000 C   0  0  0  0  0  0  0  0  0  0  0  0
    7.1447   -6.6000    0.0000 C   0  0  0  0  0  0  0  0  0  0  0  0
    7.1447   -7.4250    0.0000 N   0  0  0  0  0  0  0  0  0  0  0  0
    6.4302   -7.8375    0.0000 C   0  0  0  0  0  0  0  0  0  0  0  0
    5.7158   -7.4250    0.0000 C   0  0  0  0  0  0  0  0  0  0  0  0
    7.8592   -7.8375    0.0000 C   0  0  0  0  0  0  0  0  0  0  0  0
    8.5737   -7.4250    0.0000 C   0  0  0  0  0  0  0  0  0  0  0  0
    9.2881   -7.8375    0.0000 C   0  0  0  0  0  0  0  0  0  0  0  0
    9.2881   -8.6625    0.0000 C   0  0  0  0  0  0  0  0  0  0  0  0
    8.5737   -9.0750    0.0000 C   0  0  0  0  0  0  0  0  0  0  0  0
    7.8592   -8.6625    0.0000 C   0  0  0  0  0  0  0  0  0  0  0  0
    7.1447   -9.0750    0.0000 O   0  0  0  0  0  0  0  0  0  0  0  0
    6.4302   -8.6625    0.0000 C   0  0  0  0  0  0  0  0  0  0  0  0
    3.5724   -8.6625    0.0000 C   0  0  0  0  0  0  0  0  0  0  0  0
  1  2  1  0  0  0  0
  2  3  1  0  0  0  0
  3  4  2  0  0  0  0
  3 35  1  0  0  0  0
  4  5  1  0  0  0  0
  5  6  2  0  0  0  0
  6  7  1  0  0  0  0
  7  8  1  0  0  0  0
  7 35  2  0  0  0  0
  8  9  1  0  0  0  0
  9 10  1  0  0  0  0
 10 11  2  0  0  0  0
 10 15  1  0  0  0  0
 11 12  1  0  0  0  0
 12 13  2  0  0  0  0
 13 14  1  0  0  0  0
 14 15  2  0  0  0  0
 15 16  1  0  0  0  0
 16 17  1  0  0  0  0
 17 18  1  0  0  0  0
 18 19  1  0  0  0  0
 19 20  1  0  0  0  0
 20 21  1  0  0  0  0
 21 22  1  0  0  0  0
 21 26  1  0  0  0  0
 22 23  1  0  0  0  0
 23 24  1  0  0  0  0
 24 25  1  0  0  0  0
 24 27  1  0  0  0  0
 25 26  1  0  0  0  0
 27 28  2  0  0  0  0
 27 32  1  0  0  0  0
 28 29  1  0  0  0  0
 29 30  2  0  0  0  0
 30 31  1  0  0  0  0
 31 32  2  0  0  0  0
 32 33  1  0  0  0  0
 33 34  1  0  0  0  0
M  END
$$$$

 OpenBabel12191814062D

 33 36  0  0  0  0  0  0  0  0999 V2000
    5.7158   -9.0750    0.0000 C   0  0  0  0  0  0  0  0  0  0  0  0
    5.0013   -8.6625    0.0000 O   0  0  0  0  0  0  0  0  0  0  0  0
    4.2868   -9.0750    0.0000 C   0  0  0  0  0  0  0  0  0  0  0  0
    4.2868   -9.9000    0.0000 C   0  0  0  0  0  0  0  0  0  0  0  0
    3.5724  -10.3125    0.0000 C   0  0  0  0  0  0  0  0  0  0  0  0
    2.8579   -9.9000    0.0000 C   0  0  0  0  0  0  0  0  0  0  0  0
    2.8579   -9.0750    0.0000 C   0  0  0  0  0  0  0  0  0  0  0  0
    2.1434   -8.6625    0.0000 C   0  0  0  0  0  0  0  0  0  0  0  0
    2.1434   -7.8375    0.0000 C   0  0  0  0  0  0  0  0  0  0  0  0
    1.4289   -7.4250    0.0000 C   0  0  0  0  0  0  0  0  0  0  0  0
    0.7145   -7.8375    0.0000 C   0  0  0  0  0  0  0  0  0  0  0  0
    0.0000   -7.4250    0.0000 C   0  0  0  0  0  0  0  0  0  0  0  0
    0.0000   -6.6000    0.0000 C   0  0  0  0  0  0  0  0  0  0  0  0
    0.7145   -6.1875    0.0000 C   0  0  0  0  0  0  0  0  0  0  0  0
    1.4289   -6.6000    0.0000 C   0  0  0  0  0  0  0  0  0  0  0  0
    2.1434   -6.1875    0.0000 O   0  0  0  0  0  0  0  0  0  0  0  0
    2.8579   -6.6000    0.0000 C   0  0  0  0  0  0  0  0  0  0  0  0
    3.5724   -6.1875    0.0000 C   0  0  0  0  0  0  0  0  0  0  0  0
    4.2868   -6.6000    0.0000 C   0  0  0  0  0  0  0  0  0  0  0  0
    5.0013   -6.1875    0.0000 C   0  0  0  0  0  0  0  0  0  0  0  0
    5.7158   -6.6000    0.0000 N   0  0  0  0  0  0  0  0  0  0  0  0
    6.4302   -6.1875    0.0000 C   0  0  0  0  0  0  0  0  0  0  0  0
    7.1447   -6.6000    0.0000 C   0  0  0  0  0  0  0  0  0  0  0  0
    7.1447   -7.4250    0.0000 N   0  0  0  0  0  0  0  0  0  0  0  0
    6.4302   -7.8375    0.0000 C   0  0  0  0  0  0  0  0  0  0  0  0
    5.7158   -7.4250    0.0000 C   0  0  0  0  0  0  0  0  0  0  0  0
    7.8592   -7.8375    0.0000 C   0  0  0  0  0  0  0  0  0  0  0  0
    8.5737   -7.4250    0.0000 N   0  0  0  0  0  0  0  0  0  0  0  0
    9.2881   -7.8375    0.0000 C   0  0  0  0  0  0  0  0  0  0  0  0
    9.2881   -8.6625    0.0000 C   0  0  0  0  0  0  0  0  0  0  0  0
    8.5737   -9.0750    0.0000 C   0  0  0  0  0  0  0  0  0  0  0  0
    7.8592   -8.6625    0.0000 N   0  0  0  0  0  0  0  0  0  0  0  0
    3.5724   -8.6625    0.0000 C   0  0  0  0  0  0  0  0  0  0  0  0
  1  2  1  0  0  0  0
  2  3  1  0  0  0  0
  3  4  2  0  0  0  0
  3 33  1  0  0  0  0
  4  5  1  0  0  0  0
  5  6  2  0  0  0  0
  6  7  1  0  0  0  0
  7  8  1  0  0  0  0
  7 33  2  0  0  0  0
  8  9  1  0  0  0  0
  9 10  1  0  0  0  0
 10 11  2  0  0  0  0
 10 15  1  0  0  0  0
 11 12  1  0  0  0  0
 12 13  2  0  0  0  0
 13 14  1  0  0  0  0
 14 15  2  0  0  0  0
 15 16  1  0  0  0  0
 16 17  1  0  0  0  0
 17 18  1  0  0  0  0
 18 19  1  0  0  0  0
 19 20  1  0  0  0  0
 20 21  1  0  0  0  0
 21 22  1  0  0  0  0
 21 26  1  0  0  0  0
 22 23  1  0  0  0  0
 23 24  1  0  0  0  0
 24 25  1  0  0  0  0
 24 27  1  0  0  0  0
 25 26  1  0  0  0  0
 27 28  2  0  0  0  0
 27 32  1  0  0  0  0
 28 29  1  0  0  0  0
 29 30  2  0  0  0  0
 30 31  1  0  0  0  0
 31 32  2  0  0  0  0
M  END
$$$$

 OpenBabel12191814062D

 34 37  0  0  0  0  0  0  0  0999 V2000
    2.8579   -6.6000    0.0000 C   0  0  0  0  0  0  0  0  0  0  0  0
    2.1434   -6.1875    0.0000 O   0  0  0  0  0  0  0  0  0  0  0  0
    1.4289   -6.6000    0.0000 C   0  0  0  0  0  0  0  0  0  0  0  0
    1.4289   -7.4250    0.0000 C   0  0  0  0  0  0  0  0  0  0  0  0
    0.7145   -7.8375    0.0000 C   0  0  0  0  0  0  0  0  0  0  0  0
    0.0000   -7.4250    0.0000 C   0  0  0  0  0  0  0  0  0  0  0  0
    0.0000   -6.6000    0.0000 C   0  0  0  0  0  0  0  0  0  0  0  0
   -0.7145   -6.1875    0.0000 C   0  0  0  0  0  0  0  0  0  0  0  0
   -0.7145   -5.3625    0.0000 C   0  0  0  0  0  0  0  0  0  0  0  0
   -1.4289   -4.9500    0.0000 C   0  0  0  0  0  0  0  0  0  0  0  0
   -2.1434   -5.3625    0.0000 C   0  0  0  0  0  0  0  0  0  0  0  0
   -2.8579   -4.9500    0.0000 C   0  0  0  0  0  0  0  0  0  0  0  0
   -2.8579   -4.1250    0.0000 C   0  0  0  0  0  0  0  0  0  0  0  0
   -2.1434   -3.7125    0.0000 C   0  0  0  0  0  0  0  0  0  0  0  0
   -1.4289   -4.1250    0.0000 C   0  0  0  0  0  0  0  0  0  0  0  0
   -0.7145   -3.7125    0.0000 O   0  0  0  0  0  0  0  0  0  0  0  0
   -0.7145   -2.8875    0.0000 C   0  0  0  0  0  0  0  0  0  0  0  0
    0.0000   -2.4750    0.0000 C   0  0  0  0  0  0  0  0  0  0  0  0
    0.0000   -1.6500    0.0000 C   0  0  0  0  0  0  0  0  0  0  0  0
    0.7145   -1.2375    0.0000 N   0  0  0  0  0  0  0  0  0  0  0  0
    0.7145   -0.4125    0.0000 C   0  0  0  0  0  0  0  0  0  0  0  0
    1.4289    0.0000    0.0000 C   0  0  0  0  0  0  0  0  0  0  0  0
    2.1434   -0.4125    0.0000 C   0  0  0  0  0  0  0  0  0  0  0  0
    2.8579    0.0000    0.0000 C   0  0  0  0  0  0  0  0  0  0  0  0
    3.5724   -0.4125    0.0000 C   0  0  0  0  0  0  0  0  0  0  0  0
    4.2868   -0.0000    0.0000 O   0  0  0  0  0  0  0  0  0  0  0  0
    4.2868    0.8250    0.0000 C   0  0  0  0  0  0  0  0  0  0  0  0
    3.5724   -1.2375    0.0000 C   0  0  0  0  0  0  0  0  0  0  0  0
    4.2868   -1.6500    0.0000 O   0  0  0  0  0  0  0  0  0  0  0  0
    4.2868   -2.4750    0.0000 C   0  0  0  0  0  0  0  0  0  0  0  0
    2.8579   -1.6500    0.0000 C   0  0  0  0  0  0  0  0  0  0  0  0
    2.1434   -1.2375    0.0000 C   0  0  0  0  0  0  0  0  0  0  0  0
    1.4289   -1.6500    0.0000 C   0  0  0  0  0  0  0  0  0  0  0  0
    0.7145   -6.1875    0.0000 C   0  0  0  0  0  0  0  0  0  0  0  0
  1  2  1  0  0  0  0
  2  3  1  0  0  0  0
  3  4  2  0  0  0  0
  3 34  1  0  0  0  0
  4  5  1  0  0  0  0
  5  6  2  0  0  0  0
  6  7  1  0  0  0  0
  7  8  1  0  0  0  0
  7 34  2  0  0  0  0
  8  9  1  0  0  0  0
  9 10  1  0  0  0  0
 10 11  2  0  0  0  0
 10 15  1  0  0  0  0
 11 12  1  0  0  0  0
 12 13  2  0  0  0  0
 13 14  1  0  0  0  0
 14 15  2  0  0  0  0
 15 16  1  0  0  0  0
 16 17  1  0  0  0  0
 17 18  1  0  0  0  0
 18 19  1  0  0  0  0
 19 20  1  0  0  0  0
 20 21  1  0  0  0  0
 20 33  1  0  0  0  0
 21 22  1  0  0  0  0
 22 23  1  0  0  0  0
 23 24  2  0  0  0  0
 23 32  1  0  0  0  0
 24 25  1  0  0  0  0
 25 26  1  0  0  0  0
 25 28  2  0  0  0  0
 26 27  1  0  0  0  0
 28 29  1  0  0  0  0
 28 31  1  0  0  0  0
 29 30  1  0  0  0  0
 31 32  2  0  0  0  0
 32 33  1  0  0  0  0
M  END
$$$$

 OpenBabel12191814062D

 30 33  0  0  0  0  0  0  0  0999 V2000
   -5.7158   -1.6500    0.0000 C   0  0  0  0  0  0  0  0  0  0  0  0
   -5.0013   -1.2375    0.0000 O   0  0  0  0  0  0  0  0  0  0  0  0
   -5.0013   -0.4125    0.0000 C   0  0  0  0  0  0  0  0  0  0  0  0
   -5.7158   -0.0000    0.0000 C   0  0  0  0  0  0  0  0  0  0  0  0
   -5.7158    0.8250    0.0000 C   0  0  0  0  0  0  0  0  0  0  0  0
   -5.0013    1.2375    0.0000 C   0  0  0  0  0  0  0  0  0  0  0  0
   -4.2868    0.8250    0.0000 C   0  0  0  0  0  0  0  0  0  0  0  0
   -3.5724    1.2375    0.0000 C   0  0  0  0  0  0  0  0  0  0  0  0
   -2.8579    0.8250    0.0000 C   0  0  0  0  0  0  0  0  0  0  0  0
   -2.1434    1.2375    0.0000 C   0  0  0  0  0  0  0  0  0  0  0  0
   -2.1434    2.0625    0.0000 C   0  0  0  0  0  0  0  0  0  0  0  0
   -1.4289    2.4750    0.0000 C   0  0  0  0  0  0  0  0  0  0  0  0
   -0.7145    2.0625    0.0000 C   0  0  0  0  0  0  0  0  0  0  0  0
   -0.7145    1.2375    0.0000 C   0  0  0  0  0  0  0  0  0  0  0  0
   -1.4289    0.8250    0.0000 C   0  0  0  0  0  0  0  0  0  0  0  0
   -1.4289   -0.0000    0.0000 O   0  0  0  0  0  0  0  0  0  0  0  0
   -0.7145   -0.4125    0.0000 C   0  0  0  0  0  0  0  0  0  0  0  0
   -0.7145   -1.2375    0.0000 C   0  0  0  0  0  0  0  0  0  0  0  0
    0.0000   -1.6500    0.0000 C   0  0  0  0  0  0  0  0  0  0  0  0
    0.7145   -1.2375    0.0000 N   0  0  0  0  0  0  0  0  0  0  0  0
    0.7145   -0.4125    0.0000 C   0  0  0  0  0  0  0  0  0  0  0  0
    1.4289    0.0000    0.0000 C   0  0  0  0  0  0  0  0  0  0  0  0
    2.1434   -0.4125    0.0000 C   0  0  0  0  0  0  0  0  0  0  0  0
    2.8579    0.0000    0.0000 C   0  0  0  0  0  0  0  0  0  0  0  0
    3.5724   -0.4125    0.0000 C   0  0  0  0  0  0  0  0  0  0  0  0
    3.5724   -1.2375    0.0000 C   0  0  0  0  0  0  0  0  0  0  0  0
    2.8579   -1.6500    0.0000 C   0  0  0  0  0  0  0  0  0  0  0  0
    2.1434   -1.2375    0.0000 C   0  0  0  0  0  0  0  0  0  0  0  0
    1.4289   -1.6500    0.0000 C   0  0  0  0  0  0  0  0  0  0  0  0
   -4.2868   -0.0000    0.0000 C   0  0  0  0  0  0  0  0  0  0  0  0
  1  2  1  0  0  0  0
  2  3  1  0  0  0  0
  3  4  2  0  0  0  0
  3 30  1  0  0  0  0
  4  5  1  0  0  0  0
  5  6  2  0  0  0  0
  6  7  1  0  0  0  0
  7  8  1  0  0  0  0
  7 30  2  0  0  0  0
  8  9  1  0  0  0  0
  9 10  1  0  0  0  0
 10 11  2  0  0  0  0
 10 15  1  0  0  0  0
 11 12  1  0  0  0  0
 12 13  2  0  0  0  0
 13 14  1  0  0  0  0
 14 15  2  0  0  0  0
 15 16  1  0  0  0  0
 16 17  1  0  0  0  0
 17 18  1  0  0  0  0
 18 19  1  0  0  0  0
 19 20  1  0  0  0  0
 20 21  1  0  0  0  0
 20 29  1  0  0  0  0
 21 22  1  0  0  0  0
 22 23  1  0  0  0  0
 23 24  2  0  0  0  0
 23 28  1  0  0  0  0
 24 25  1  0  0  0  0
 25 26  2  0  0  0  0
 26 27  1  0  0  0  0
 27 28  2  0  0  0  0
 28 29  1  0  0  0  0
M  END
$$$$

 OpenBabel12191814062D

 27 29  0  0  0  0  0  0  0  0999 V2000
    0.0000   -7.4250    0.0000 C   0  0  0  0  0  0  0  0  0  0  0  0
    0.0000   -6.6000    0.0000 O   0  0  0  0  0  0  0  0  0  0  0  0
   -0.7145   -6.1875    0.0000 C   0  0  0  0  0  0  0  0  0  0  0  0
   -1.4289   -6.6000    0.0000 C   0  0  0  0  0  0  0  0  0  0  0  0
   -2.1434   -6.1875    0.0000 C   0  0  0  0  0  0  0  0  0  0  0  0
   -2.1434   -5.3625    0.0000 C   0  0  0  0  0  0  0  0  0  0  0  0
   -1.4289   -4.9500    0.0000 C   0  0  0  0  0  0  0  0  0  0  0  0
   -1.4289   -4.1250    0.0000 C   0  0  0  0  0  0  0  0  0  0  0  0
   -0.7145   -3.7125    0.0000 C   0  0  0  0  0  0  0  0  0  0  0  0
   -0.7145   -2.8875    0.0000 C   0  0  0  0  0  0  0  0  0  0  0  0
   -1.4289   -2.4750    0.0000 C   0  0  0  0  0  0  0  0  0  0  0  0
   -1.4289   -1.6500    0.0000 C   0  0  0  0  0  0  0  0  0  0  0  0
   -0.7145   -1.2375    0.0000 C   0  0  0  0  0  0  0  0  0  0  0  0
    0.0000   -1.6500    0.0000 C   0  0  0  0  0  0  0  0  0  0  0  0
    0.0000   -2.4750    0.0000 C   0  0  0  0  0  0  0  0  0  0  0  0
    0.7145   -2.8875    0.0000 O   0  0  0  0  0  0  0  0  0  0  0  0
    1.4289   -2.4750    0.0000 C   0  0  0  0  0  0  0  0  0  0  0  0
    2.1434   -2.8875    0.0000 C   0  0  0  0  0  0  0  0  0  0  0  0
    2.8579   -2.4750    0.0000 C   0  0  0  0  0  0  0  0  0  0  0  0
    3.5724   -2.8875    0.0000 N   0  0  0  0  0  0  0  0  0  0  0  0
    4.2868   -2.4750    0.0000 C   0  0  0  0  0  0  0  0  0  0  0  0
    5.0013   -2.8875    0.0000 C   0  0  0  0  0  0  0  0  0  0  0  0
    5.0013   -3.7125    0.0000 N   0  0  0  0  0  0  0  0  0  0  0  0
    5.7158   -4.1250    0.0000 C   0  0  0  0  0  0  0  0  0  0  0  0
    4.2868   -4.1250    0.0000 C   0  0  0  0  0  0  0  0  0  0  0  0
    3.5724   -3.7125    0.0000 C   0  0  0  0  0  0  0  0  0  0  0  0
   -0.7145   -5.3625    0.0000 C   0  0  0  0  0  0  0  0  0  0  0  0
  1  2  1  0  0  0  0
  2  3  1  0  0  0  0
  3  4  2  0  0  0  0
  3 27  1  0  0  0  0
  4  5  1  0  0  0  0
  5  6  2  0  0  0  0
  6  7  1  0  0  0  0
  7  8  1  0  0  0  0
  7 27  2  0  0  0  0
  8  9  1  0  0  0  0
  9 10  1  0  0  0  0
 10 11  2  0  0  0  0
 10 15  1  0  0  0  0
 11 12  1  0  0  0  0
 12 13  2  0  0  0  0
 13 14  1  0  0  0  0
 14 15  2  0  0  0  0
 15 16  1  0  0  0  0
 16 17  1  0  0  0  0
 17 18  1  0  0  0  0
 18 19  1  0  0  0  0
 19 20  1  0  0  0  0
 20 21  1  0  0  0  0
 20 26  1  0  0  0  0
 21 22  1  0  0  0  0
 22 23  1  0  0  0  0
 23 24  1  0  0  0  0
 23 25  1  0  0  0  0
 25 26  1  0  0  0  0
M  END
$$$$

 OpenBabel12191814062D

 33 36  0  0  0  0  0  0  0  0999 V2000
    6.4302   -3.7125    0.0000 C   0  0  0  0  0  0  0  0  0  0  0  0
    5.7158   -4.1250    0.0000 O   0  0  0  0  0  0  0  0  0  0  0  0
    5.7158   -4.9500    0.0000 C   0  0  0  0  0  0  0  0  0  0  0  0
    6.4302   -5.3625    0.0000 C   0  0  0  0  0  0  0  0  0  0  0  0
    6.4302   -6.1875    0.0000 C   0  0  0  0  0  0  0  0  0  0  0  0
    5.7158   -6.6000    0.0000 C   0  0  0  0  0  0  0  0  0  0  0  0
    5.0013   -6.1875    0.0000 C   0  0  0  0  0  0  0  0  0  0  0  0
    4.2868   -6.6000    0.0000 C   0  0  0  0  0  0  0  0  0  0  0  0
    3.5724   -6.1875    0.0000 C   0  0  0  0  0  0  0  0  0  0  0  0
    2.8579   -6.6000    0.0000 C   0  0  0  0  0  0  0  0  0  0  0  0
    2.8579   -7.4250    0.0000 C   0  0  0  0  0  0  0  0  0  0  0  0
    2.1434   -7.8375    0.0000 C   0  0  0  0  0  0  0  0  0  0  0  0
    1.4289   -7.4250    0.0000 C   0  0  0  0  0  0  0  0  0  0  0  0
    1.4289   -6.6000    0.0000 C   0  0  0  0  0  0  0  0  0  0  0  0
    2.1434   -6.1875    0.0000 C   0  0  0  0  0  0  0  0  0  0  0  0
    2.1434   -5.3625    0.0000 O   0  0  0  0  0  0  0  0  0  0  0  0
    1.4289   -4.9500    0.0000 C   0  0  0  0  0  0  0  0  0  0  0  0
    1.4289   -4.1250    0.0000 C   0  0  0  0  0  0  0  0  0  0  0  0
    0.7145   -3.7125    0.0000 C   0  0  0  0  0  0  0  0  0  0  0  0
    0.7145   -2.8875    0.0000 N   0  0  0  0  0  0  0  0  0  0  0  0
    0.0000   -2.4750    0.0000 C   0  0  0  0  0  0  0  0  0  0  0  0
    0.0000   -1.6500    0.0000 C   0  0  0  0  0  0  0  0  0  0  0  0
    0.7145   -1.2375    0.0000 N   0  0  0  0  0  0  0  0  0  0  0  0
    1.4289   -1.6500    0.0000 C   0  0  0  0  0  0  0  0  0  0  0  0
    1.4289   -2.4750    0.0000 C   0  0  0  0  0  0  0  0  0  0  0  0
    0.7145   -0.4125    0.0000 C   0  0  0  0  0  0  0  0  0  0  0  0
    0.0000    0.0000    0.0000 C   0  0  0  0  0  0  0  0  0  0  0  0
    0.0000    0.8250    0.0000 C   0  0  0  0  0  0  0  0  0  0  0  0
    0.7145    1.2375    0.0000 C   0  0  0  0  0  0  0  0  0  0  0  0
    0.7145    2.0625    0.0000 F   0  0  0  0  0  0  0  0  0  0  0  0
    1.4289    0.8250    0.0000 C   0  0  0  0  0  0  0  0  0  0  0  0
    1.4289    0.0000    0.0000 C   0  0  0  0  0  0  0  0  0  0  0  0
    5.0013   -5.3625    0.0000 C   0  0  0  0  0  0  0  0  0  0  0  0
  1  2  1  0  0  0  0
  2  3  1  0  0  0  0
  3  4  2  0  0  0  0
  3 33  1  0  0  0  0
  4  5  1  0  0  0  0
  5  6  2  0  0  0  0
  6  7  1  0  0  0  0
  7  8  1  0  0  0  0
  7 33  2  0  0  0  0
  8  9  1  0  0  0  0
  9 10  1  0  0  0  0
 10 11  2  0  0  0  0
 10 15  1  0  0  0  0
 11 12  1  0  0  0  0
 12 13  2  0  0  0  0
 13 14  1  0  0  0  0
 14 15  2  0  0  0  0
 15 16  1  0  0  0  0
 16 17  1  0  0  0  0
 17 18  1  0  0  0  0
 18 19  1  0  0  0  0
 19 20  1  0  0  0  0
 20 21  1  0  0  0  0
 20 25  1  0  0  0  0
 21 22  1  0  0  0  0
 22 23  1  0  0  0  0
 23 24  1  0  0  0  0
 23 26  1  0  0  0  0
 24 25  1  0  0  0  0
 26 27  2  0  0  0  0
 26 32  1  0  0  0  0
 27 28  1  0  0  0  0
 28 29  2  0  0  0  0
 29 30  1  0  0  0  0
 29 31  1  0  0  0  0
 31 32  2  0  0  0  0
M  END
$$$$

 OpenBabel12191814062D

 36 39  0  0  0  0  0  0  0  0999 V2000
   -2.8579   -4.9500    0.0000 C   0  0  0  0  0  0  0  0  0  0  0  0
   -3.5724   -5.3625    0.0000 O   0  0  0  0  0  0  0  0  0  0  0  0
   -3.5724   -6.1875    0.0000 C   0  0  0  0  0  0  0  0  0  0  0  0
   -2.8579   -6.6000    0.0000 C   0  0  0  0  0  0  0  0  0  0  0  0
   -2.8579   -7.4250    0.0000 C   0  0  0  0  0  0  0  0  0  0  0  0
   -3.5724   -7.8375    0.0000 C   0  0  0  0  0  0  0  0  0  0  0  0
   -4.2868   -7.4250    0.0000 C   0  0  0  0  0  0  0  0  0  0  0  0
   -5.0013   -7.8375    0.0000 C   0  0  0  0  0  0  0  0  0  0  0  0
   -5.7158   -7.4250    0.0000 C   0  0  0  0  0  0  0  0  0  0  0  0
   -6.4302   -7.8375    0.0000 C   0  0  0  0  0  0  0  0  0  0  0  0
   -6.4302   -8.6625    0.0000 C   0  0  0  0  0  0  0  0  0  0  0  0
   -7.1447   -9.0750    0.0000 C   0  0  0  0  0  0  0  0  0  0  0  0
   -7.8592   -8.6625    0.0000 C   0  0  0  0  0  0  0  0  0  0  0  0
   -7.8592   -7.8375    0.0000 C   0  0  0  0  0  0  0  0  0  0  0  0
   -7.1447   -7.4250    0.0000 C   0  0  0  0  0  0  0  0  0  0  0  0
   -7.1447   -6.6000    0.0000 O   0  0  0  0  0  0  0  0  0  0  0  0
   -7.8592   -6.1875    0.0000 C   0  0  0  0  0  0  0  0  0  0  0  0
   -7.8592   -5.3625    0.0000 C   0  0  0  0  0  0  0  0  0  0  0  0
   -8.5737   -4.9500    0.0000 C   0  0  0  0  0  0  0  0  0  0  0  0
   -9.2881   -5.3625    0.0000 N   0  0  0  0  0  0  0  0  0  0  0  0
   -9.2881   -6.1875    0.0000 C   0  0  0  0  0  0  0  0  0  0  0  0
  -10.0026   -6.6000    0.0000 C   0  0  0  0  0  0  0  0  0  0  0  0
  -10.7171   -6.1875    0.0000 N   0  0  0  0  0  0  0  0  0  0  0  0
  -10.7171   -5.3625    0.0000 C   0  0  0  0  0  0  0  0  0  0  0  0
  -10.0026   -4.9500    0.0000 C   0  0  0  0  0  0  0  0  0  0  0  0
  -11.4315   -6.6000    0.0000 C   0  0  0  0  0  0  0  0  0  0  0  0
  -11.4315   -7.4250    0.0000 C   0  0  0  0  0  0  0  0  0  0  0  0
  -12.1460   -7.8375    0.0000 C   0  0  0  0  0  0  0  0  0  0  0  0
  -12.8605   -7.4250    0.0000 C   0  0  0  0  0  0  0  0  0  0  0  0
  -12.8605   -6.6000    0.0000 C   0  0  0  0  0  0  0  0  0  0  0  0
  -12.1460   -6.1875    0.0000 C   0  0  0  0  0  0  0  0  0  0  0  0
  -13.5749   -6.1875    0.0000 C   0  0  0  0  0  0  0  0  0  0  0  0
  -14.2894   -5.7750    0.0000 F   0  0  0  0  0  0  0  0  0  0  0  0
  -13.1624   -5.4730    0.0000 F   0  0  0  0  0  0  0  0  0  0  0  0
  -13.9874   -6.9020    0.0000 F   0  0  0  0  0  0  0  0  0  0  0  0
   -4.2868   -6.6000    0.0000 C   0  0  0  0  0  0  0  0  0  0  0  0
  1  2  1  0  0  0  0
  2  3  1  0  0  0  0
  3  4  2  0  0  0  0
  3 36  1  0  0  0  0
  4  5  1  0  0  0  0
  5  6  2  0  0  0  0
  6  7  1  0  0  0  0
  7  8  1  0  0  0  0
  7 36  2  0  0  0  0
  8  9  1  0  0  0  0
  9 10  1  0  0  0  0
 10 11  2  0  0  0  0
 10 15  1  0  0  0  0
 11 12  1  0  0  0  0
 12 13  2  0  0  0  0
 13 14  1  0  0  0  0
 14 15  2  0  0  0  0
 15 16  1  0  0  0  0
 16 17  1  0  0  0  0
 17 18  1  0  0  0  0
 18 19  1  0  0  0  0
 19 20  1  0  0  0  0
 20 21  1  0  0  0  0
 20 25  1  0  0  0  0
 21 22  1  0  0  0  0
 22 23  1  0  0  0  0
 23 24  1  0  0  0  0
 23 26  1  0  0  0  0
 24 25  1  0  0  0  0
 26 27  2  0  0  0  0
 26 31  1  0  0  0  0
 27 28  1  0  0  0  0
 28 29  2  0  0  0  0
 29 30  1  0  0  0  0
 30 31  2  0  0  0  0
 30 32  1  0  0  0  0
 32 33  1  0  0  0  0
 32 34  1  0  0  0  0
 32 35  1  0  0  0  0
M  END
$$$$

 OpenBabel12191814062D

 33 36  0  0  0  0  0  0  0  0999 V2000
    6.4302   -3.7125    0.0000 C   0  0  0  0  0  0  0  0  0  0  0  0
    5.7158   -4.1250    0.0000 O   0  0  0  0  0  0  0  0  0  0  0  0
    5.7158   -4.9500    0.0000 C   0  0  0  0  0  0  0  0  0  0  0  0
    6.4302   -5.3625    0.0000 C   0  0  0  0  0  0  0  0  0  0  0  0
    6.4302   -6.1875    0.0000 C   0  0  0  0  0  0  0  0  0  0  0  0
    5.7158   -6.6000    0.0000 C   0  0  0  0  0  0  0  0  0  0  0  0
    5.0013   -6.1875    0.0000 C   0  0  0  0  0  0  0  0  0  0  0  0
    4.2868   -6.6000    0.0000 C   0  0  0  0  0  0  0  0  0  0  0  0
    3.5724   -6.1875    0.0000 C   0  0  0  0  0  0  0  0  0  0  0  0
    2.8579   -6.6000    0.0000 C   0  0  0  0  0  0  0  0  0  0  0  0
    2.8579   -7.4250    0.0000 C   0  0  0  0  0  0  0  0  0  0  0  0
    2.1434   -7.8375    0.0000 C   0  0  0  0  0  0  0  0  0  0  0  0
    1.4289   -7.4250    0.0000 C   0  0  0  0  0  0  0  0  0  0  0  0
    1.4289   -6.6000    0.0000 C   0  0  0  0  0  0  0  0  0  0  0  0
    2.1434   -6.1875    0.0000 C   0  0  0  0  0  0  0  0  0  0  0  0
    2.1434   -5.3625    0.0000 O   0  0  0  0  0  0  0  0  0  0  0  0
    1.4289   -4.9500    0.0000 C   0  0  0  0  0  0  0  0  0  0  0  0
    1.4289   -4.1250    0.0000 C   0  0  0  0  0  0  0  0  0  0  0  0
    0.7145   -3.7125    0.0000 C   0  0  0  0  0  0  0  0  0  0  0  0
    0.7145   -2.8875    0.0000 N   0  0  0  0  0  0  0  0  0  0  0  0
    0.0000   -2.4750    0.0000 C   0  0  0  0  0  0  0  0  0  0  0  0
    0.0000   -1.6500    0.0000 C   0  0  0  0  0  0  0  0  0  0  0  0
    0.7145   -1.2375    0.0000 N   0  0  0  0  0  0  0  0  0  0  0  0
    1.4289   -1.6500    0.0000 C   0  0  0  0  0  0  0  0  0  0  0  0
    1.4289   -2.4750    0.0000 C   0  0  0  0  0  0  0  0  0  0  0  0
    0.7145   -0.4125    0.0000 C   0  0  0  0  0  0  0  0  0  0  0  0
    0.0000    0.0000    0.0000 C   0  0  0  0  0  0  0  0  0  0  0  0
    0.0000    0.8250    0.0000 C   0  0  0  0  0  0  0  0  0  0  0  0
    0.7145    1.2375    0.0000 C   0  0  0  0  0  0  0  0  0  0  0  0
    1.4289    0.8250    0.0000 C   0  0  0  0  0  0  0  0  0  0  0  0
    2.1434    1.2375    0.0000 Cl  0  0  0  0  0  0  0  0  0  0  0  0
    1.4289    0.0000    0.0000 C   0  0  0  0  0  0  0  0  0  0  0  0
    5.0013   -5.3625    0.0000 C   0  0  0  0  0  0  0  0  0  0  0  0
  1  2  1  0  0  0  0
  2  3  1  0  0  0  0
  3  4  2  0  0  0  0
  3 33  1  0  0  0  0
  4  5  1  0  0  0  0
  5  6  2  0  0  0  0
  6  7  1  0  0  0  0
  7  8  1  0  0  0  0
  7 33  2  0  0  0  0
  8  9  1  0  0  0  0
  9 10  1  0  0  0  0
 10 11  2  0  0  0  0
 10 15  1  0  0  0  0
 11 12  1  0  0  0  0
 12 13  2  0  0  0  0
 13 14  1  0  0  0  0
 14 15  2  0  0  0  0
 15 16  1  0  0  0  0
 16 17  1  0  0  0  0
 17 18  1  0  0  0  0
 18 19  1  0  0  0  0
 19 20  1  0  0  0  0
 20 21  1  0  0  0  0
 20 25  1  0  0  0  0
 21 22  1  0  0  0  0
 22 23  1  0  0  0  0
 23 24  1  0  0  0  0
 23 26  1  0  0  0  0
 24 25  1  0  0  0  0
 26 27  2  0  0  0  0
 26 32  1  0  0  0  0
 27 28  1  0  0  0  0
 28 29  2  0  0  0  0
 29 30  1  0  0  0  0
 30 31  1  0  0  0  0
 30 32  2  0  0  0  0
M  END
$$$$

 OpenBabel12191814062D

 34 37  0  0  0  0  0  0  0  0999 V2000
    6.4302   -3.7125    0.0000 C   0  0  0  0  0  0  0  0  0  0  0  0
    5.7158   -4.1250    0.0000 O   0  0  0  0  0  0  0  0  0  0  0  0
    5.7158   -4.9500    0.0000 C   0  0  0  0  0  0  0  0  0  0  0  0
    6.4302   -5.3625    0.0000 C   0  0  0  0  0  0  0  0  0  0  0  0
    6.4302   -6.1875    0.0000 C   0  0  0  0  0  0  0  0  0  0  0  0
    5.7158   -6.6000    0.0000 C   0  0  0  0  0  0  0  0  0  0  0  0
    5.0013   -6.1875    0.0000 C   0  0  0  0  0  0  0  0  0  0  0  0
    4.2868   -6.6000    0.0000 C   0  0  0  0  0  0  0  0  0  0  0  0
    3.5724   -6.1875    0.0000 C   0  0  0  0  0  0  0  0  0  0  0  0
    2.8579   -6.6000    0.0000 C   0  0  0  0  0  0  0  0  0  0  0  0
    2.8579   -7.4250    0.0000 C   0  0  0  0  0  0  0  0  0  0  0  0
    2.1434   -7.8375    0.0000 C   0  0  0  0  0  0  0  0  0  0  0  0
    1.4289   -7.4250    0.0000 C   0  0  0  0  0  0  0  0  0  0  0  0
    1.4289   -6.6000    0.0000 C   0  0  0  0  0  0  0  0  0  0  0  0
    2.1434   -6.1875    0.0000 C   0  0  0  0  0  0  0  0  0  0  0  0
    2.1434   -5.3625    0.0000 O   0  0  0  0  0  0  0  0  0  0  0  0
    1.4289   -4.9500    0.0000 C   0  0  0  0  0  0  0  0  0  0  0  0
    1.4289   -4.1250    0.0000 C   0  0  0  0  0  0  0  0  0  0  0  0
    0.7145   -3.7125    0.0000 C   0  0  0  0  0  0  0  0  0  0  0  0
    0.7145   -2.8875    0.0000 N   0  0  0  0  0  0  0  0  0  0  0  0
    0.0000   -2.4750    0.0000 C   0  0  0  0  0  0  0  0  0  0  0  0
    0.0000   -1.6500    0.0000 C   0  0  0  0  0  0  0  0  0  0  0  0
    0.7145   -1.2375    0.0000 N   0  0  0  0  0  0  0  0  0  0  0  0
    1.4289   -1.6500    0.0000 C   0  0  0  0  0  0  0  0  0  0  0  0
    1.4289   -2.4750    0.0000 C   0  0  0  0  0  0  0  0  0  0  0  0
    0.7145   -0.4125    0.0000 C   0  0  0  0  0  0  0  0  0  0  0  0
    0.0000    0.0000    0.0000 C   0  0  0  0  0  0  0  0  0  0  0  0
    0.0000    0.8250    0.0000 C   0  0  0  0  0  0  0  0  0  0  0  0
    0.7145    1.2375    0.0000 C   0  0  0  0  0  0  0  0  0  0  0  0
    1.4289    0.8250    0.0000 C   0  0  0  0  0  0  0  0  0  0  0  0
    1.4289    0.0000    0.0000 C   0  0  0  0  0  0  0  0  0  0  0  0
    2.1434   -0.4125    0.0000 O   0  0  0  0  0  0  0  0  0  0  0  0
    2.1434   -1.2375    0.0000 C   0  0  0  0  0  0  0  0  0  0  0  0
    5.0013   -5.3625    0.0000 C   0  0  0  0  0  0  0  0  0  0  0  0
  1  2  1  0  0  0  0
  2  3  1  0  0  0  0
  3  4  2  0  0  0  0
  3 34  1  0  0  0  0
  4  5  1  0  0  0  0
  5  6  2  0  0  0  0
  6  7  1  0  0  0  0
  7  8  1  0  0  0  0
  7 34  2  0  0  0  0
  8  9  1  0  0  0  0
  9 10  1  0  0  0  0
 10 11  2  0  0  0  0
 10 15  1  0  0  0  0
 11 12  1  0  0  0  0
 12 13  2  0  0  0  0
 13 14  1  0  0  0  0
 14 15  2  0  0  0  0
 15 16  1  0  0  0  0
 16 17  1  0  0  0  0
 17 18  1  0  0  0  0
 18 19  1  0  0  0  0
 19 20  1  0  0  0  0
 20 21  1  0  0  0  0
 20 25  1  0  0  0  0
 21 22  1  0  0  0  0
 22 23  1  0  0  0  0
 23 24  1  0  0  0  0
 23 26  1  0  0  0  0
 24 25  1  0  0  0  0
 26 27  2  0  0  0  0
 26 31  1  0  0  0  0
 27 28  1  0  0  0  0
 28 29  2  0  0  0  0
 29 30  1  0  0  0  0
 30 31  2  0  0  0  0
 31 32  1  0  0  0  0
 32 33  1  0  0  0  0
M  END
$$$$

 OpenBabel12191814062D

 32 35  0  0  0  0  0  0  0  0999 V2000
    6.4302   -3.7125    0.0000 C   0  0  0  0  0  0  0  0  0  0  0  0
    5.7158   -4.1250    0.0000 O   0  0  0  0  0  0  0  0  0  0  0  0
    5.7158   -4.9500    0.0000 C   0  0  0  0  0  0  0  0  0  0  0  0
    6.4302   -5.3625    0.0000 C   0  0  0  0  0  0  0  0  0  0  0  0
    6.4302   -6.1875    0.0000 C   0  0  0  0  0  0  0  0  0  0  0  0
    5.7158   -6.6000    0.0000 C   0  0  0  0  0  0  0  0  0  0  0  0
    5.0013   -6.1875    0.0000 C   0  0  0  0  0  0  0  0  0  0  0  0
    4.2868   -6.6000    0.0000 C   0  0  0  0  0  0  0  0  0  0  0  0
    3.5724   -6.1875    0.0000 C   0  0  0  0  0  0  0  0  0  0  0  0
    2.8579   -6.6000    0.0000 C   0  0  0  0  0  0  0  0  0  0  0  0
    2.8579   -7.4250    0.0000 C   0  0  0  0  0  0  0  0  0  0  0  0
    2.1434   -7.8375    0.0000 C   0  0  0  0  0  0  0  0  0  0  0  0
    1.4289   -7.4250    0.0000 C   0  0  0  0  0  0  0  0  0  0  0  0
    1.4289   -6.6000    0.0000 C   0  0  0  0  0  0  0  0  0  0  0  0
    2.1434   -6.1875    0.0000 C   0  0  0  0  0  0  0  0  0  0  0  0
    2.1434   -5.3625    0.0000 O   0  0  0  0  0  0  0  0  0  0  0  0
    1.4289   -4.9500    0.0000 C   0  0  0  0  0  0  0  0  0  0  0  0
    1.4289   -4.1250    0.0000 C   0  0  0  0  0  0  0  0  0  0  0  0
    0.7145   -3.7125    0.0000 C   0  0  0  0  0  0  0  0  0  0  0  0
    0.7145   -2.8875    0.0000 N   0  0  0  0  0  0  0  0  0  0  0  0
    0.0000   -2.4750    0.0000 C   0  0  0  0  0  0  0  0  0  0  0  0
    0.0000   -1.6500    0.0000 C   0  0  0  0  0  0  0  0  0  0  0  0
    0.7145   -1.2375    0.0000 N   0  0  0  0  0  0  0  0  0  0  0  0
    1.4289   -1.6500    0.0000 C   0  0  0  0  0  0  0  0  0  0  0  0
    1.4289   -2.4750    0.0000 C   0  0  0  0  0  0  0  0  0  0  0  0
    0.7145   -0.4125    0.0000 C   0  0  0  0  0  0  0  0  0  0  0  0
    0.0000    0.0000    0.0000 N   0  0  0  0  0  0  0  0  0  0  0  0
    0.0000    0.8250    0.0000 C   0  0  0  0  0  0  0  0  0  0  0  0
    0.7145    1.2375    0.0000 C   0  0  0  0  0  0  0  0  0  0  0  0
    1.4289    0.8250    0.0000 C   0  0  0  0  0  0  0  0  0  0  0  0
    1.4289    0.0000    0.0000 N   0  0  0  0  0  0  0  0  0  0  0  0
    5.0013   -5.3625    0.0000 C   0  0  0  0  0  0  0  0  0  0  0  0
  1  2  1  0  0  0  0
  2  3  1  0  0  0  0
  3  4  2  0  0  0  0
  3 32  1  0  0  0  0
  4  5  1  0  0  0  0
  5  6  2  0  0  0  0
  6  7  1  0  0  0  0
  7  8  1  0  0  0  0
  7 32  2  0  0  0  0
  8  9  1  0  0  0  0
  9 10  1  0  0  0  0
 10 11  2  0  0  0  0
 10 15  1  0  0  0  0
 11 12  1  0  0  0  0
 12 13  2  0  0  0  0
 13 14  1  0  0  0  0
 14 15  2  0  0  0  0
 15 16  1  0  0  0  0
 16 17  1  0  0  0  0
 17 18  1  0  0  0  0
 18 19  1  0  0  0  0
 19 20  1  0  0  0  0
 20 21  1  0  0  0  0
 20 25  1  0  0  0  0
 21 22  1  0  0  0  0
 22 23  1  0  0  0  0
 23 24  1  0  0  0  0
 23 26  1  0  0  0  0
 24 25  1  0  0  0  0
 26 27  2  0  0  0  0
 26 31  1  0  0  0  0
 27 28  1  0  0  0  0
 28 29  2  0  0  0  0
 29 30  1  0  0  0  0
 30 31  2  0  0  0  0
M  END
$$$$

 OpenBabel12191814062D

 33 36  0  0  0  0  0  0  0  0999 V2000
   -1.4289   -4.9500    0.0000 C   0  0  0  0  0  0  0  0  0  0  0  0
   -1.4289   -4.1250    0.0000 O   0  0  0  0  0  0  0  0  0  0  0  0
   -2.1434   -3.7125    0.0000 C   0  0  0  0  0  0  0  0  0  0  0  0
   -2.8579   -4.1250    0.0000 C   0  0  0  0  0  0  0  0  0  0  0  0
   -3.5724   -3.7125    0.0000 C   0  0  0  0  0  0  0  0  0  0  0  0
   -3.5724   -2.8875    0.0000 C   0  0  0  0  0  0  0  0  0  0  0  0
   -2.8579   -2.4750    0.0000 C   0  0  0  0  0  0  0  0  0  0  0  0
   -2.8579   -1.6500    0.0000 C   0  0  0  0  0  0  0  0  0  0  0  0
   -2.1434   -1.2375    0.0000 C   0  0  0  0  0  0  0  0  0  0  0  0
   -2.1434   -0.4125    0.0000 C   0  0  0  0  0  0  0  0  0  0  0  0
   -2.8579   -0.0000    0.0000 C   0  0  0  0  0  0  0  0  0  0  0  0
   -2.8579    0.8250    0.0000 C   0  0  0  0  0  0  0  0  0  0  0  0
   -2.1434    1.2375    0.0000 C   0  0  0  0  0  0  0  0  0  0  0  0
   -1.4289    0.8250    0.0000 C   0  0  0  0  0  0  0  0  0  0  0  0
   -1.4289   -0.0000    0.0000 C   0  0  0  0  0  0  0  0  0  0  0  0
   -0.7145   -0.4125    0.0000 O   0  0  0  0  0  0  0  0  0  0  0  0
   -0.7145   -1.2375    0.0000 C   0  0  0  0  0  0  0  0  0  0  0  0
    0.0000   -1.6500    0.0000 C   0  0  0  0  0  0  0  0  0  0  0  0
    0.7145   -1.2375    0.0000 N   0  0  0  0  0  0  0  0  0  0  0  0
    0.7145   -0.4125    0.0000 C   0  0  0  0  0  0  0  0  0  0  0  0
    1.4289    0.0000    0.0000 C   0  0  0  0  0  0  0  0  0  0  0  0
    2.1434   -0.4125    0.0000 C   0  0  0  0  0  0  0  0  0  0  0  0
    2.8579    0.0000    0.0000 C   0  0  0  0  0  0  0  0  0  0  0  0
    3.5724   -0.4125    0.0000 C   0  0  0  0  0  0  0  0  0  0  0  0
    4.2868   -0.0000    0.0000 O   0  0  0  0  0  0  0  0  0  0  0  0
    4.2868    0.8250    0.0000 C   0  0  0  0  0  0  0  0  0  0  0  0
    3.5724   -1.2375    0.0000 C   0  0  0  0  0  0  0  0  0  0  0  0
    4.2868   -1.6500    0.0000 O   0  0  0  0  0  0  0  0  0  0  0  0
    4.2868   -2.4750    0.0000 C   0  0  0  0  0  0  0  0  0  0  0  0
    2.8579   -1.6500    0.0000 C   0  0  0  0  0  0  0  0  0  0  0  0
    2.1434   -1.2375    0.0000 C   0  0  0  0  0  0  0  0  0  0  0  0
    1.4289   -1.6500    0.0000 C   0  0  0  0  0  0  0  0  0  0  0  0
   -2.1434   -2.8875    0.0000 C   0  0  0  0  0  0  0  0  0  0  0  0
  1  2  1  0  0  0  0
  2  3  1  0  0  0  0
  3  4  2  0  0  0  0
  3 33  1  0  0  0  0
  4  5  1  0  0  0  0
  5  6  2  0  0  0  0
  6  7  1  0  0  0  0
  7  8  1  0  0  0  0
  7 33  2  0  0  0  0
  8  9  1  0  0  0  0
  9 10  1  0  0  0  0
 10 11  2  0  0  0  0
 10 15  1  0  0  0  0
 11 12  1  0  0  0  0
 12 13  2  0  0  0  0
 13 14  1  0  0  0  0
 14 15  2  0  0  0  0
 15 16  1  0  0  0  0
 16 17  1  0  0  0  0
 17 18  1  0  0  0  0
 18 19  1  0  0  0  0
 19 20  1  0  0  0  0
 19 32  1  0  0  0  0
 20 21  1  0  0  0  0
 21 22  1  0  0  0  0
 22 23  2  0  0  0  0
 22 31  1  0  0  0  0
 23 24  1  0  0  0  0
 24 25  1  0  0  0  0
 24 27  2  0  0  0  0
 25 26  1  0  0  0  0
 27 28  1  0  0  0  0
 27 30  1  0  0  0  0
 28 29  1  0  0  0  0
 30 31  2  0  0  0  0
 31 32  1  0  0  0  0
M  END
$$$$

 OpenBabel12191814062D

 29 32  0  0  0  0  0  0  0  0999 V2000
   -1.4289   -4.9500    0.0000 C   0  0  0  0  0  0  0  0  0  0  0  0
   -1.4289   -4.1250    0.0000 O   0  0  0  0  0  0  0  0  0  0  0  0
   -2.1434   -3.7125    0.0000 C   0  0  0  0  0  0  0  0  0  0  0  0
   -2.8579   -4.1250    0.0000 C   0  0  0  0  0  0  0  0  0  0  0  0
   -3.5724   -3.7125    0.0000 C   0  0  0  0  0  0  0  0  0  0  0  0
   -3.5724   -2.8875    0.0000 C   0  0  0  0  0  0  0  0  0  0  0  0
   -2.8579   -2.4750    0.0000 C   0  0  0  0  0  0  0  0  0  0  0  0
   -2.8579   -1.6500    0.0000 C   0  0  0  0  0  0  0  0  0  0  0  0
   -2.1434   -1.2375    0.0000 C   0  0  0  0  0  0  0  0  0  0  0  0
   -2.1434   -0.4125    0.0000 C   0  0  0  0  0  0  0  0  0  0  0  0
   -2.8579   -0.0000    0.0000 C   0  0  0  0  0  0  0  0  0  0  0  0
   -2.8579    0.8250    0.0000 C   0  0  0  0  0  0  0  0  0  0  0  0
   -2.1434    1.2375    0.0000 C   0  0  0  0  0  0  0  0  0  0  0  0
   -1.4289    0.8250    0.0000 C   0  0  0  0  0  0  0  0  0  0  0  0
   -1.4289   -0.0000    0.0000 C   0  0  0  0  0  0  0  0  0  0  0  0
   -0.7145   -0.4125    0.0000 O   0  0  0  0  0  0  0  0  0  0  0  0
   -0.7145   -1.2375    0.0000 C   0  0  0  0  0  0  0  0  0  0  0  0
    0.0000   -1.6500    0.0000 C   0  0  0  0  0  0  0  0  0  0  0  0
    0.7145   -1.2375    0.0000 N   0  0  0  0  0  0  0  0  0  0  0  0
    0.7145   -0.4125    0.0000 C   0  0  0  0  0  0  0  0  0  0  0  0
    1.4289    0.0000    0.0000 C   0  0  0  0  0  0  0  0  0  0  0  0
    2.1434   -0.4125    0.0000 C   0  0  0  0  0  0  0  0  0  0  0  0
    2.8579    0.0000    0.0000 C   0  0  0  0  0  0  0  0  0  0  0  0
    3.5724   -0.4125    0.0000 C   0  0  0  0  0  0  0  0  0  0  0  0
    3.5724   -1.2375    0.0000 C   0  0  0  0  0  0  0  0  0  0  0  0
    2.8579   -1.6500    0.0000 C   0  0  0  0  0  0  0  0  0  0  0  0
    2.1434   -1.2375    0.0000 C   0  0  0  0  0  0  0  0  0  0  0  0
    1.4289   -1.6500    0.0000 C   0  0  0  0  0  0  0  0  0  0  0  0
   -2.1434   -2.8875    0.0000 C   0  0  0  0  0  0  0  0  0  0  0  0
  1  2  1  0  0  0  0
  2  3  1  0  0  0  0
  3  4  2  0  0  0  0
  3 29  1  0  0  0  0
  4  5  1  0  0  0  0
  5  6  2  0  0  0  0
  6  7  1  0  0  0  0
  7  8  1  0  0  0  0
  7 29  2  0  0  0  0
  8  9  1  0  0  0  0
  9 10  1  0  0  0  0
 10 11  2  0  0  0  0
 10 15  1  0  0  0  0
 11 12  1  0  0  0  0
 12 13  2  0  0  0  0
 13 14  1  0  0  0  0
 14 15  2  0  0  0  0
 15 16  1  0  0  0  0
 16 17  1  0  0  0  0
 17 18  1  0  0  0  0
 18 19  1  0  0  0  0
 19 20  1  0  0  0  0
 19 28  1  0  0  0  0
 20 21  1  0  0  0  0
 21 22  1  0  0  0  0
 22 23  2  0  0  0  0
 22 27  1  0  0  0  0
 23 24  1  0  0  0  0
 24 25  2  0  0  0  0
 25 26  1  0  0  0  0
 26 27  2  0  0  0  0
 27 28  1  0  0  0  0
M  END
$$$$

 OpenBabel12191814062D

 26 28  0  0  0  0  0  0  0  0999 V2000
    1.4289   -2.4750    0.0000 C   0  0  0  0  0  0  0  0  0  0  0  0
    0.7145   -2.8875    0.0000 O   0  0  0  0  0  0  0  0  0  0  0  0
    0.7145   -3.7125    0.0000 C   0  0  0  0  0  0  0  0  0  0  0  0
    1.4289   -4.1250    0.0000 C   0  0  0  0  0  0  0  0  0  0  0  0
    1.4289   -4.9500    0.0000 C   0  0  0  0  0  0  0  0  0  0  0  0
    0.7145   -5.3625    0.0000 C   0  0  0  0  0  0  0  0  0  0  0  0
    0.0000   -4.9500    0.0000 C   0  0  0  0  0  0  0  0  0  0  0  0
   -0.7145   -5.3625    0.0000 C   0  0  0  0  0  0  0  0  0  0  0  0
   -1.4289   -4.9500    0.0000 C   0  0  0  0  0  0  0  0  0  0  0  0
   -2.1434   -5.3625    0.0000 C   0  0  0  0  0  0  0  0  0  0  0  0
   -2.1434   -6.1875    0.0000 C   0  0  0  0  0  0  0  0  0  0  0  0
   -2.8579   -6.6000    0.0000 C   0  0  0  0  0  0  0  0  0  0  0  0
   -3.5724   -6.1875    0.0000 C   0  0  0  0  0  0  0  0  0  0  0  0
   -3.5724   -5.3625    0.0000 C   0  0  0  0  0  0  0  0  0  0  0  0
   -2.8579   -4.9500    0.0000 C   0  0  0  0  0  0  0  0  0  0  0  0
   -2.8579   -4.1250    0.0000 O   0  0  0  0  0  0  0  0  0  0  0  0
   -2.1434   -3.7125    0.0000 C   0  0  0  0  0  0  0  0  0  0  0  0
   -2.1434   -2.8875    0.0000 C   0  0  0  0  0  0  0  0  0  0  0  0
   -2.8579   -2.4750    0.0000 N   0  0  0  0  0  0  0  0  0  0  0  0
   -3.5724   -2.8875    0.0000 C   0  0  0  0  0  0  0  0  0  0  0  0
   -4.2868   -2.4750    0.0000 C   0  0  0  0  0  0  0  0  0  0  0  0
   -4.2868   -1.6500    0.0000 N   0  0  0  0  0  0  0  0  0  0  0  0
   -5.0013   -1.2375    0.0000 C   0  0  0  0  0  0  0  0  0  0  0  0
   -3.5724   -1.2375    0.0000 C   0  0  0  0  0  0  0  0  0  0  0  0
   -2.8579   -1.6500    0.0000 C   0  0  0  0  0  0  0  0  0  0  0  0
    0.0000   -4.1250    0.0000 C   0  0  0  0  0  0  0  0  0  0  0  0
  1  2  1  0  0  0  0
  2  3  1  0  0  0  0
  3  4  2  0  0  0  0
  3 26  1  0  0  0  0
  4  5  1  0  0  0  0
  5  6  2  0  0  0  0
  6  7  1  0  0  0  0
  7  8  1  0  0  0  0
  7 26  2  0  0  0  0
  8  9  1  0  0  0  0
  9 10  1  0  0  0  0
 10 11  2  0  0  0  0
 10 15  1  0  0  0  0
 11 12  1  0  0  0  0
 12 13  2  0  0  0  0
 13 14  1  0  0  0  0
 14 15  2  0  0  0  0
 15 16  1  0  0  0  0
 16 17  1  0  0  0  0
 17 18  1  0  0  0  0
 18 19  1  0  0  0  0
 19 20  1  0  0  0  0
 19 25  1  0  0  0  0
 20 21  1  0  0  0  0
 21 22  1  0  0  0  0
 22 23  1  0  0  0  0
 22 24  1  0  0  0  0
 24 25  1  0  0  0  0
M  END
$$$$

 OpenBabel12191814062D

 32 35  0  0  0  0  0  0  0  0999 V2000
    1.4289   -4.9500    0.0000 C   0  0  0  0  0  0  0  0  0  0  0  0
    0.7145   -5.3625    0.0000 O   0  0  0  0  0  0  0  0  0  0  0  0
    0.7145   -6.1875    0.0000 C   0  0  0  0  0  0  0  0  0  0  0  0
    1.4289   -6.6000    0.0000 C   0  0  0  0  0  0  0  0  0  0  0  0
    1.4289   -7.4250    0.0000 C   0  0  0  0  0  0  0  0  0  0  0  0
    0.7145   -7.8375    0.0000 C   0  0  0  0  0  0  0  0  0  0  0  0
    0.0000   -7.4250    0.0000 C   0  0  0  0  0  0  0  0  0  0  0  0
   -0.7145   -7.8375    0.0000 C   0  0  0  0  0  0  0  0  0  0  0  0
   -1.4289   -7.4250    0.0000 C   0  0  0  0  0  0  0  0  0  0  0  0
   -2.1434   -7.8375    0.0000 C   0  0  0  0  0  0  0  0  0  0  0  0
   -2.1434   -8.6625    0.0000 C   0  0  0  0  0  0  0  0  0  0  0  0
   -2.8579   -9.0750    0.0000 C   0  0  0  0  0  0  0  0  0  0  0  0
   -3.5724   -8.6625    0.0000 C   0  0  0  0  0  0  0  0  0  0  0  0
   -3.5724   -7.8375    0.0000 C   0  0  0  0  0  0  0  0  0  0  0  0
   -2.8579   -7.4250    0.0000 C   0  0  0  0  0  0  0  0  0  0  0  0
   -2.8579   -6.6000    0.0000 O   0  0  0  0  0  0  0  0  0  0  0  0
   -2.1434   -6.1875    0.0000 C   0  0  0  0  0  0  0  0  0  0  0  0
   -2.1434   -5.3625    0.0000 C   0  0  0  0  0  0  0  0  0  0  0  0
   -2.8579   -4.9500    0.0000 N   0  0  0  0  0  0  0  0  0  0  0  0
   -3.5724   -5.3625    0.0000 C   0  0  0  0  0  0  0  0  0  0  0  0
   -4.2868   -4.9500    0.0000 C   0  0  0  0  0  0  0  0  0  0  0  0
   -4.2868   -4.1250    0.0000 N   0  0  0  0  0  0  0  0  0  0  0  0
   -3.5724   -3.7125    0.0000 C   0  0  0  0  0  0  0  0  0  0  0  0
   -2.8579   -4.1250    0.0000 C   0  0  0  0  0  0  0  0  0  0  0  0
   -5.0013   -3.7125    0.0000 C   0  0  0  0  0  0  0  0  0  0  0  0
   -5.7158   -4.1250    0.0000 C   0  0  0  0  0  0  0  0  0  0  0  0
   -6.4302   -3.7125    0.0000 C   0  0  0  0  0  0  0  0  0  0  0  0
   -6.4302   -2.8875    0.0000 C   0  0  0  0  0  0  0  0  0  0  0  0
   -7.1447   -2.4750    0.0000 F   0  0  0  0  0  0  0  0  0  0  0  0
   -5.7158   -2.4750    0.0000 C   0  0  0  0  0  0  0  0  0  0  0  0
   -5.0013   -2.8875    0.0000 C   0  0  0  0  0  0  0  0  0  0  0  0
    0.0000   -6.6000    0.0000 C   0  0  0  0  0  0  0  0  0  0  0  0
  1  2  1  0  0  0  0
  2  3  1  0  0  0  0
  3  4  2  0  0  0  0
  3 32  1  0  0  0  0
  4  5  1  0  0  0  0
  5  6  2  0  0  0  0
  6  7  1  0  0  0  0
  7  8  1  0  0  0  0
  7 32  2  0  0  0  0
  8  9  1  0  0  0  0
  9 10  1  0  0  0  0
 10 11  2  0  0  0  0
 10 15  1  0  0  0  0
 11 12  1  0  0  0  0
 12 13  2  0  0  0  0
 13 14  1  0  0  0  0
 14 15  2  0  0  0  0
 15 16  1  0  0  0  0
 16 17  1  0  0  0  0
 17 18  1  0  0  0  0
 18 19  1  0  0  0  0
 19 20  1  0  0  0  0
 19 24  1  0  0  0  0
 20 21  1  0  0  0  0
 21 22  1  0  0  0  0
 22 23  1  0  0  0  0
 22 25  1  0  0  0  0
 23 24  1  0  0  0  0
 25 26  2  0  0  0  0
 25 31  1  0  0  0  0
 26 27  1  0  0  0  0
 27 28  2  0  0  0  0
 28 29  1  0  0  0  0
 28 30  1  0  0  0  0
 30 31  2  0  0  0  0
M  END
$$$$

 OpenBabel12191814062D

 32 35  0  0  0  0  0  0  0  0999 V2000
    1.4289   -4.9500    0.0000 C   0  0  0  0  0  0  0  0  0  0  0  0
    0.7145   -5.3625    0.0000 O   0  0  0  0  0  0  0  0  0  0  0  0
    0.7145   -6.1875    0.0000 C   0  0  0  0  0  0  0  0  0  0  0  0
    1.4289   -6.6000    0.0000 C   0  0  0  0  0  0  0  0  0  0  0  0
    1.4289   -7.4250    0.0000 C   0  0  0  0  0  0  0  0  0  0  0  0
    0.7145   -7.8375    0.0000 C   0  0  0  0  0  0  0  0  0  0  0  0
    0.0000   -7.4250    0.0000 C   0  0  0  0  0  0  0  0  0  0  0  0
   -0.7145   -7.8375    0.0000 C   0  0  0  0  0  0  0  0  0  0  0  0
   -1.4289   -7.4250    0.0000 C   0  0  0  0  0  0  0  0  0  0  0  0
   -2.1434   -7.8375    0.0000 C   0  0  0  0  0  0  0  0  0  0  0  0
   -2.1434   -8.6625    0.0000 C   0  0  0  0  0  0  0  0  0  0  0  0
   -2.8579   -9.0750    0.0000 C   0  0  0  0  0  0  0  0  0  0  0  0
   -3.5724   -8.6625    0.0000 C   0  0  0  0  0  0  0  0  0  0  0  0
   -3.5724   -7.8375    0.0000 C   0  0  0  0  0  0  0  0  0  0  0  0
   -2.8579   -7.4250    0.0000 C   0  0  0  0  0  0  0  0  0  0  0  0
   -2.8579   -6.6000    0.0000 O   0  0  0  0  0  0  0  0  0  0  0  0
   -2.1434   -6.1875    0.0000 C   0  0  0  0  0  0  0  0  0  0  0  0
   -2.1434   -5.3625    0.0000 C   0  0  0  0  0  0  0  0  0  0  0  0
   -2.8579   -4.9500    0.0000 N   0  0  0  0  0  0  0  0  0  0  0  0
   -3.5724   -5.3625    0.0000 C   0  0  0  0  0  0  0  0  0  0  0  0
   -4.2868   -4.9500    0.0000 C   0  0  0  0  0  0  0  0  0  0  0  0
   -4.2868   -4.1250    0.0000 N   0  0  0  0  0  0  0  0  0  0  0  0
   -3.5724   -3.7125    0.0000 C   0  0  0  0  0  0  0  0  0  0  0  0
   -2.8579   -4.1250    0.0000 C   0  0  0  0  0  0  0  0  0  0  0  0
   -5.0013   -3.7125    0.0000 C   0  0  0  0  0  0  0  0  0  0  0  0
   -5.7158   -4.1250    0.0000 C   0  0  0  0  0  0  0  0  0  0  0  0
   -6.4302   -3.7125    0.0000 C   0  0  0  0  0  0  0  0  0  0  0  0
   -6.4302   -2.8875    0.0000 C   0  0  0  0  0  0  0  0  0  0  0  0
   -5.7158   -2.4750    0.0000 C   0  0  0  0  0  0  0  0  0  0  0  0
   -5.7158   -1.6500    0.0000 Cl  0  0  0  0  0  0  0  0  0  0  0  0
   -5.0013   -2.8875    0.0000 C   0  0  0  0  0  0  0  0  0  0  0  0
    0.0000   -6.6000    0.0000 C   0  0  0  0  0  0  0  0  0  0  0  0
  1  2  1  0  0  0  0
  2  3  1  0  0  0  0
  3  4  2  0  0  0  0
  3 32  1  0  0  0  0
  4  5  1  0  0  0  0
  5  6  2  0  0  0  0
  6  7  1  0  0  0  0
  7  8  1  0  0  0  0
  7 32  2  0  0  0  0
  8  9  1  0  0  0  0
  9 10  1  0  0  0  0
 10 11  2  0  0  0  0
 10 15  1  0  0  0  0
 11 12  1  0  0  0  0
 12 13  2  0  0  0  0
 13 14  1  0  0  0  0
 14 15  2  0  0  0  0
 15 16  1  0  0  0  0
 16 17  1  0  0  0  0
 17 18  1  0  0  0  0
 18 19  1  0  0  0  0
 19 20  1  0  0  0  0
 19 24  1  0  0  0  0
 20 21  1  0  0  0  0
 21 22  1  0  0  0  0
 22 23  1  0  0  0  0
 22 25  1  0  0  0  0
 23 24  1  0  0  0  0
 25 26  2  0  0  0  0
 25 31  1  0  0  0  0
 26 27  1  0  0  0  0
 27 28  2  0  0  0  0
 28 29  1  0  0  0  0
 29 30  1  0  0  0  0
 29 31  2  0  0  0  0
M  END
$$$$

 OpenBabel12191814062D

 31 34  0  0  0  0  0  0  0  0999 V2000
    1.4289   -4.9500    0.0000 C   0  0  0  0  0  0  0  0  0  0  0  0
    0.7145   -5.3625    0.0000 O   0  0  0  0  0  0  0  0  0  0  0  0
    0.7145   -6.1875    0.0000 C   0  0  0  0  0  0  0  0  0  0  0  0
    1.4289   -6.6000    0.0000 C   0  0  0  0  0  0  0  0  0  0  0  0
    1.4289   -7.4250    0.0000 C   0  0  0  0  0  0  0  0  0  0  0  0
    0.7145   -7.8375    0.0000 C   0  0  0  0  0  0  0  0  0  0  0  0
    0.0000   -7.4250    0.0000 C   0  0  0  0  0  0  0  0  0  0  0  0
   -0.7145   -7.8375    0.0000 C   0  0  0  0  0  0  0  0  0  0  0  0
   -1.4289   -7.4250    0.0000 C   0  0  0  0  0  0  0  0  0  0  0  0
   -2.1434   -7.8375    0.0000 C   0  0  0  0  0  0  0  0  0  0  0  0
   -2.1434   -8.6625    0.0000 C   0  0  0  0  0  0  0  0  0  0  0  0
   -2.8579   -9.0750    0.0000 C   0  0  0  0  0  0  0  0  0  0  0  0
   -3.5724   -8.6625    0.0000 C   0  0  0  0  0  0  0  0  0  0  0  0
   -3.5724   -7.8375    0.0000 C   0  0  0  0  0  0  0  0  0  0  0  0
   -2.8579   -7.4250    0.0000 C   0  0  0  0  0  0  0  0  0  0  0  0
   -2.8579   -6.6000    0.0000 O   0  0  0  0  0  0  0  0  0  0  0  0
   -2.1434   -6.1875    0.0000 C   0  0  0  0  0  0  0  0  0  0  0  0
   -2.1434   -5.3625    0.0000 C   0  0  0  0  0  0  0  0  0  0  0  0
   -2.8579   -4.9500    0.0000 N   0  0  0  0  0  0  0  0  0  0  0  0
   -3.5724   -5.3625    0.0000 C   0  0  0  0  0  0  0  0  0  0  0  0
   -4.2868   -4.9500    0.0000 C   0  0  0  0  0  0  0  0  0  0  0  0
   -4.2868   -4.1250    0.0000 N   0  0  0  0  0  0  0  0  0  0  0  0
   -3.5724   -3.7125    0.0000 C   0  0  0  0  0  0  0  0  0  0  0  0
   -2.8579   -4.1250    0.0000 C   0  0  0  0  0  0  0  0  0  0  0  0
   -5.0013   -3.7125    0.0000 C   0  0  0  0  0  0  0  0  0  0  0  0
   -5.7158   -4.1250    0.0000 N   0  0  0  0  0  0  0  0  0  0  0  0
   -6.4302   -3.7125    0.0000 C   0  0  0  0  0  0  0  0  0  0  0  0
   -6.4302   -2.8875    0.0000 C   0  0  0  0  0  0  0  0  0  0  0  0
   -5.7158   -2.4750    0.0000 C   0  0  0  0  0  0  0  0  0  0  0  0
   -5.0013   -2.8875    0.0000 N   0  0  0  0  0  0  0  0  0  0  0  0
    0.0000   -6.6000    0.0000 C   0  0  0  0  0  0  0  0  0  0  0  0
  1  2  1  0  0  0  0
  2  3  1  0  0  0  0
  3  4  2  0  0  0  0
  3 31  1  0  0  0  0
  4  5  1  0  0  0  0
  5  6  2  0  0  0  0
  6  7  1  0  0  0  0
  7  8  1  0  0  0  0
  7 31  2  0  0  0  0
  8  9  1  0  0  0  0
  9 10  1  0  0  0  0
 10 11  2  0  0  0  0
 10 15  1  0  0  0  0
 11 12  1  0  0  0  0
 12 13  2  0  0  0  0
 13 14  1  0  0  0  0
 14 15  2  0  0  0  0
 15 16  1  0  0  0  0
 16 17  1  0  0  0  0
 17 18  1  0  0  0  0
 18 19  1  0  0  0  0
 19 20  1  0  0  0  0
 19 24  1  0  0  0  0
 20 21  1  0  0  0  0
 21 22  1  0  0  0  0
 22 23  1  0  0  0  0
 22 25  1  0  0  0  0
 23 24  1  0  0  0  0
 25 26  2  0  0  0  0
 25 30  1  0  0  0  0
 26 27  1  0  0  0  0
 27 28  2  0  0  0  0
 28 29  1  0  0  0  0
 29 30  2  0  0  0  0
M  END
$$$$

 OpenBabel12191814062D

 31 32  0  0  0  0  0  0  0  0999 V2000
   -2.1434   -4.5375    0.0000 C   0  0  0  0  0  0  0  0  0  0  0  0
   -1.4289   -4.9500    0.0000 O   0  0  0  0  0  0  0  0  0  0  0  0
   -0.7145   -4.5375    0.0000 C   0  0  0  0  0  0  0  0  0  0  0  0
   -0.7145   -3.7125    0.0000 C   0  0  0  0  0  0  0  0  0  0  0  0
    0.0000   -3.3000    0.0000 C   0  0  0  0  0  0  0  0  0  0  0  0
    0.7145   -3.7125    0.0000 C   0  0  0  0  0  0  0  0  0  0  0  0
    0.7145   -4.5375    0.0000 C   0  0  0  0  0  0  0  0  0  0  0  0
    1.4289   -4.9500    0.0000 C   0  0  0  0  0  0  0  0  0  0  0  0
    2.1434   -4.5375    0.0000 C   0  0  0  0  0  0  0  0  0  0  0  0
    2.8579   -4.9500    0.0000 N   0  0  0  0  0  0  0  0  0  0  0  0
    2.8579   -5.7750    0.0000 C   0  0  0  0  0  0  0  0  0  0  0  0
    3.5724   -4.5375    0.0000 C   0  0  0  0  0  0  0  0  0  0  0  0
    4.2868   -4.9500    0.0000 C   0  0  0  0  0  0  0  0  0  0  0  0
    5.0013   -4.5375    0.0000 C   0  0  0  0  0  0  0  0  0  0  0  0
    5.7158   -4.9500    0.0000 C   0  0  3  0  0  0  0  0  0  0  0  0
    5.3033   -5.6645    0.0000 C   0  0  0  0  0  0  0  0  0  0  0  0
    4.8908   -6.3789    0.0000 N   0  0  0  0  0  0  0  0  0  0  0  0
    6.1283   -4.2355    0.0000 C   0  0  0  0  0  0  0  0  0  0  0  0
    6.9533   -4.2355    0.0000 C   0  0  0  0  0  0  0  0  0  0  0  0
    5.7158   -3.5211    0.0000 C   0  0  0  0  0  0  0  0  0  0  0  0
    6.4302   -5.3625    0.0000 C   0  0  0  0  0  0  0  0  0  0  0  0
    7.1447   -4.9500    0.0000 C   0  0  0  0  0  0  0  0  0  0  0  0
    7.8592   -5.3625    0.0000 C   0  0  0  0  0  0  0  0  0  0  0  0
    7.8592   -6.1875    0.0000 C   0  0  0  0  0  0  0  0  0  0  0  0
    8.5737   -6.6000    0.0000 O   0  0  0  0  0  0  0  0  0  0  0  0
    9.2881   -6.1875    0.0000 C   0  0  0  0  0  0  0  0  0  0  0  0
    7.1447   -6.6000    0.0000 C   0  0  0  0  0  0  0  0  0  0  0  0
    7.1447   -7.4250    0.0000 O   0  0  0  0  0  0  0  0  0  0  0  0
    6.4302   -7.8375    0.0000 C   0  0  0  0  0  0  0  0  0  0  0  0
    6.4302   -6.1875    0.0000 C   0  0  0  0  0  0  0  0  0  0  0  0
    0.0000   -4.9500    0.0000 C   0  0  0  0  0  0  0  0  0  0  0  0
  1  2  1  0  0  0  0
  2  3  1  0  0  0  0
  3  4  2  0  0  0  0
  3 31  1  0  0  0  0
  4  5  1  0  0  0  0
  5  6  2  0  0  0  0
  6  7  1  0  0  0  0
  7  8  1  0  0  0  0
  7 31  2  0  0  0  0
  8  9  1  0  0  0  0
  9 10  1  0  0  0  0
 10 11  1  0  0  0  0
 10 12  1  0  0  0  0
 12 13  1  0  0  0  0
 13 14  1  0  0  0  0
 14 15  1  0  0  0  0
 15 16  1  0  0  0  0
 15 18  1  0  0  0  0
 15 21  1  0  0  0  0
 16 17  3  0  0  0  0
 18 19  1  0  0  0  0
 18 20  1  0  0  0  0
 21 22  2  0  0  0  0
 21 30  1  0  0  0  0
 22 23  1  0  0  0  0
 23 24  2  0  0  0  0
 24 25  1  0  0  0  0
 24 27  1  0  0  0  0
 25 26  1  0  0  0  0
 27 28  1  0  0  0  0
 27 30  2  0  0  0  0
 28 29  1  0  0  0  0
M  END
$$$$

 OpenBabel12191814062D

 31 35  0  0  0  0  0  0  0  0999 V2000
    6.9874   -8.0110    0.0000 C   0  0  0  0  0  0  0  0  0  0  0  0
    6.7324   -7.2264    0.0000 O   0  0  0  0  0  0  0  0  0  0  0  0
    5.9255   -7.0549    0.0000 C   0  0  0  0  0  0  0  0  0  0  0  0
    5.3734   -7.6680    0.0000 C   0  0  0  0  0  0  0  0  0  0  0  0
    4.5665   -7.4964    0.0000 C   0  0  0  0  0  0  0  0  0  0  0  0
    4.3115   -6.7118    0.0000 C   0  0  0  0  0  0  0  0  0  0  0  0
    4.8636   -6.0987    0.0000 C   0  0  0  0  0  0  0  0  0  0  0  0
    4.6086   -5.3141    0.0000 C   0  0  0  0  0  0  0  0  0  0  0  0
    3.8017   -5.1426    0.0000 C   0  0  0  0  0  0  0  0  0  0  0  0
    3.5467   -4.3580    0.0000 N   0  0  0  0  0  0  0  0  0  0  0  0
    2.7397   -4.1864    0.0000 C   0  0  0  0  0  0  0  0  0  0  0  0
    2.4848   -3.4018    0.0000 C   0  0  0  0  0  0  0  0  0  0  0  0
    3.0368   -2.7887    0.0000 N   0  0  0  0  0  0  0  0  0  0  0  0
    3.8438   -2.9602    0.0000 C   0  0  0  0  0  0  0  0  0  0  0  0
    4.0987   -3.7449    0.0000 C   0  0  0  0  0  0  0  0  0  0  0  0
    2.7819   -2.0041    0.0000 C   0  0  0  0  0  0  0  0  0  0  0  0
    1.9749   -1.8326    0.0000 N   0  0  0  0  0  0  0  0  0  0  0  0
    1.7200   -1.0479    0.0000 C   0  0  0  0  0  0  0  0  0  0  0  0
    2.2720   -0.4349    0.0000 N   0  0  0  0  0  0  0  0  0  0  0  0
    3.0790   -0.6064    0.0000 C   0  0  0  0  0  0  0  0  0  0  0  0
    3.7464   -0.1215    0.0000 C   0  0  0  0  0  0  0  0  0  0  0  0
    3.7464    0.7035    0.0000 C   0  0  0  0  0  0  0  0  0  0  0  0
    3.7464    1.5285    0.0000 N   0  0  0  0  0  0  0  0  0  0  0  0
    4.4139   -0.6064    0.0000 C   0  0  0  0  0  0  0  0  0  0  0  0
    5.2208   -0.4349    0.0000 C   0  0  0  0  0  0  0  0  0  0  0  0
    5.7729   -1.0479    0.0000 C   0  0  0  0  0  0  0  0  0  0  0  0
    5.5179   -1.8326    0.0000 C   0  0  0  0  0  0  0  0  0  0  0  0
    4.7110   -2.0041    0.0000 C   0  0  0  0  0  0  0  0  0  0  0  0
    4.1589   -1.3910    0.0000 N   0  0  0  0  0  0  0  0  0  0  0  0
    3.3339   -1.3910    0.0000 C   0  0  0  0  0  0  0  0  0  0  0  0
    5.6705   -6.2703    0.0000 C   0  0  0  0  0  0  0  0  0  0  0  0
  1  2  1  0  0  0  0
  2  3  1  0  0  0  0
  3  4  2  0  0  0  0
  3 31  1  0  0  0  0
  4  5  1  0  0  0  0
  5  6  2  0  0  0  0
  6  7  1  0  0  0  0
  7  8  1  0  0  0  0
  7 31  2  0  0  0  0
  8  9  1  0  0  0  0
  9 10  1  0  0  0  0
 10 11  1  0  0  0  0
 10 15  1  0  0  0  0
 11 12  1  0  0  0  0
 12 13  1  0  0  0  0
 13 14  1  0  0  0  0
 13 16  1  0  0  0  0
 14 15  1  0  0  0  0
 16 17  2  0  0  0  0
 16 30  1  0  0  0  0
 17 18  1  0  0  0  0
 18 19  2  0  0  0  0
 19 20  1  0  0  0  0
 20 21  1  0  0  0  0
 20 30  2  0  0  0  0
 21 22  1  0  0  0  0
 21 24  2  0  0  0  0
 22 23  3  0  0  0  0
 24 25  1  0  0  0  0
 24 29  1  0  0  0  0
 25 26  1  0  0  0  0
 26 27  1  0  0  0  0
 27 28  1  0  0  0  0
 28 29  1  0  0  0  0
 29 30  1  0  0  0  0
M  END
$$$$

 OpenBabel12191814062D

 40 43  0  0  0  0  0  0  0  0999 V2000
    0.7145   -6.1875    0.0000 C   0  0  0  0  0  0  0  0  0  0  0  0
    0.7145   -5.3625    0.0000 O   0  0  0  0  0  0  0  0  0  0  0  0
    0.0000   -4.9500    0.0000 C   0  0  0  0  0  0  0  0  0  0  0  0
   -0.7145   -5.3625    0.0000 C   0  0  0  0  0  0  0  0  0  0  0  0
   -1.4289   -4.9500    0.0000 C   0  0  0  0  0  0  0  0  0  0  0  0
   -1.4289   -4.1250    0.0000 C   0  0  0  0  0  0  0  0  0  0  0  0
   -0.7145   -3.7125    0.0000 C   0  0  0  0  0  0  0  0  0  0  0  0
   -0.7145   -2.8875    0.0000 C   0  0  0  0  0  0  0  0  0  0  0  0
    0.0000   -2.4750    0.0000 C   0  0  0  0  0  0  0  0  0  0  0  0
    0.0000   -1.6500    0.0000 N   0  0  0  0  0  0  0  0  0  0  0  0
    0.7145   -1.2375    0.0000 C   0  0  0  0  0  0  0  0  0  0  0  0
    0.7145   -0.4125    0.0000 N   0  0  0  0  0  0  0  0  0  0  0  0
    1.4289    0.0000    0.0000 C   0  0  0  0  0  0  0  0  0  0  0  0
    1.4289    0.8250    0.0000 N   0  0  0  0  0  0  0  0  0  0  0  0
    0.7145    1.2375    0.0000 C   0  0  0  0  0  0  0  0  0  0  0  0
    0.7145    2.0625    0.0000 C   0  0  0  0  0  0  0  0  0  0  0  0
    0.0000    2.4750    0.0000 C   0  0  0  0  0  0  0  0  0  0  0  0
   -0.7145    2.0625    0.0000 C   0  0  0  0  0  0  0  0  0  0  0  0
   -1.4289    2.4750    0.0000 C   0  0  0  0  0  0  0  0  0  0  0  0
   -1.4289    3.3000    0.0000 C   0  0  0  0  0  0  0  0  0  0  0  0
   -0.7145    3.7125    0.0000 C   0  0  0  0  0  0  0  0  0  0  0  0
   -0.7145    4.5375    0.0000 O   0  0  0  0  0  0  0  0  0  0  0  0
   -1.4289    4.9500    0.0000 C   0  0  0  0  0  0  0  0  0  0  0  0
    0.0000    3.3000    0.0000 C   0  0  0  0  0  0  0  0  0  0  0  0
    0.7145    3.7125    0.0000 O   0  0  0  0  0  0  0  0  0  0  0  0
    1.4289    3.3000    0.0000 C   0  0  0  0  0  0  0  0  0  0  0  0
    2.1434   -0.4125    0.0000 C   0  0  0  0  0  0  0  0  0  0  0  0
    2.8579    0.0000    0.0000 C   0  0  0  0  0  0  0  0  0  0  0  0
    3.5724   -0.4125    0.0000 C   0  0  0  0  0  0  0  0  0  0  0  0
    4.2868   -0.0000    0.0000 O   0  0  0  0  0  0  0  0  0  0  0  0
    5.0013   -0.4125    0.0000 C   0  0  0  0  0  0  0  0  0  0  0  0
    3.5724   -1.2375    0.0000 C   0  0  0  0  0  0  0  0  0  0  0  0
    4.2868   -1.6500    0.0000 O   0  0  0  0  0  0  0  0  0  0  0  0
    4.2868   -2.4750    0.0000 C   0  0  0  0  0  0  0  0  0  0  0  0
    2.8579   -1.6500    0.0000 C   0  0  0  0  0  0  0  0  0  0  0  0
    2.1434   -1.2375    0.0000 C   0  0  0  0  0  0  0  0  0  0  0  0
    1.4289   -1.6500    0.0000 N   0  0  0  0  0  0  0  0  0  0  0  0
    0.0000   -4.1250    0.0000 C   0  0  0  0  0  0  0  0  0  0  0  0
    0.7145   -3.7125    0.0000 O   0  0  0  0  0  0  0  0  0  0  0  0
    1.4289   -4.1250    0.0000 C   0  0  0  0  0  0  0  0  0  0  0  0
  1  2  1  0  0  0  0
  2  3  1  0  0  0  0
  3  4  2  0  0  0  0
  3 38  1  0  0  0  0
  4  5  1  0  0  0  0
  5  6  2  0  0  0  0
  6  7  1  0  0  0  0
  7  8  1  0  0  0  0
  7 38  2  0  0  0  0
  8  9  1  0  0  0  0
  9 10  1  0  0  0  0
 10 11  1  0  0  0  0
 11 12  2  0  0  0  0
 11 37  1  0  0  0  0
 12 13  1  0  0  0  0
 13 14  1  0  0  0  0
 13 27  2  0  0  0  0
 14 15  1  0  0  0  0
 15 16  1  0  0  0  0
 16 17  1  0  0  0  0
 17 18  2  0  0  0  0
 17 24  1  0  0  0  0
 18 19  1  0  0  0  0
 19 20  2  0  0  0  0
 20 21  1  0  0  0  0
 21 22  1  0  0  0  0
 21 24  2  0  0  0  0
 22 23  1  0  0  0  0
 24 25  1  0  0  0  0
 25 26  1  0  0  0  0
 27 28  1  0  0  0  0
 27 36  1  0  0  0  0
 28 29  2  0  0  0  0
 29 30  1  0  0  0  0
 29 32  1  0  0  0  0
 30 31  1  0  0  0  0
 32 33  1  0  0  0  0
 32 35  2  0  0  0  0
 33 34  1  0  0  0  0
 35 36  1  0  0  0  0
 36 37  2  0  0  0  0
 38 39  1  0  0  0  0
 39 40  1  0  0  0  0
M  END
$$$$

 OpenBabel12191814062D

 43 48  0  0  0  0  0  0  0  0999 V2000
    4.7918    6.4605    0.0000 C   0  0  0  0  0  0  0  0  0  0  0  0
    4.0774    6.0480    0.0000 O   0  0  0  0  0  0  0  0  0  0  0  0
    4.0774    5.2230    0.0000 C   0  0  0  0  0  0  0  0  0  0  0  0
    4.7918    4.8105    0.0000 C   0  0  0  0  0  0  0  0  0  0  0  0
    4.7918    3.9855    0.0000 C   0  0  0  0  0  0  0  0  0  0  0  0
    4.0774    3.5730    0.0000 C   0  0  0  0  0  0  0  0  0  0  0  0
    3.3629    3.9855    0.0000 C   0  0  0  0  0  0  0  0  0  0  0  0
    2.6484    3.5730    0.0000 C   0  0  0  0  0  0  0  0  0  0  0  0
    2.6484    2.7480    0.0000 N   0  0  0  0  0  0  0  0  0  0  0  0
    1.9339    2.3355    0.0000 C   0  0  0  0  0  0  0  0  0  0  0  0
    1.2195    2.7480    0.0000 O   0  0  0  0  0  0  0  0  0  0  0  0
    1.9339    1.5105    0.0000 C   0  0  0  0  0  0  0  0  0  0  0  0
    2.6014    1.0256    0.0000 C   0  0  0  0  0  0  0  0  0  0  0  0
    3.4084    1.1971    0.0000 C   0  0  0  0  0  0  0  0  0  0  0  0
    3.9604    0.5840    0.0000 C   0  0  0  0  0  0  0  0  0  0  0  0
    3.7054   -0.2006    0.0000 C   0  0  0  0  0  0  0  0  0  0  0  0
    2.8985   -0.3721    0.0000 C   0  0  0  0  0  0  0  0  0  0  0  0
    2.3464    0.2410    0.0000 N   0  0  0  0  0  0  0  0  0  0  0  0
    1.5214    0.2410    0.0000 C   0  0  0  0  0  0  0  0  0  0  0  0
    0.9694   -0.3721    0.0000 C   0  0  0  0  0  0  0  0  0  0  0  0
    0.1624   -0.2006    0.0000 N   0  0  0  0  0  0  0  0  0  0  0  0
   -0.0925    0.5840    0.0000 C   0  0  0  0  0  0  0  0  0  0  0  0
    0.4595    1.1971    0.0000 N   0  0  0  0  0  0  0  0  0  0  0  0
    1.2665    1.0256    0.0000 C   0  0  0  0  0  0  0  0  0  0  0  0
    1.2243   -1.1567    0.0000 N   0  0  0  0  0  0  0  0  0  0  0  0
    2.0313   -1.3283    0.0000 C   0  0  0  0  0  0  0  0  0  0  0  0
    2.2863   -2.1129    0.0000 C   0  0  0  0  0  0  0  0  0  0  0  0
    1.7342   -2.7260    0.0000 N   0  0  0  0  0  0  0  0  0  0  0  0
    1.9892   -3.5106    0.0000 C   0  0  0  0  0  0  0  0  0  0  0  0
    2.7961   -3.6821    0.0000 C   0  0  0  0  0  0  0  0  0  0  0  0
    3.0511   -4.4668    0.0000 C   0  0  0  0  0  0  0  0  0  0  0  0
    3.8580   -4.6383    0.0000 C   0  0  0  0  0  0  0  0  0  0  0  0
    4.1130   -5.4229    0.0000 C   0  0  0  0  0  0  0  0  0  0  0  0
    3.5610   -6.0360    0.0000 C   0  0  0  0  0  0  0  0  0  0  0  0
    3.8159   -6.8206    0.0000 F   0  0  0  0  0  0  0  0  0  0  0  0
    2.7540   -5.8645    0.0000 C   0  0  0  0  0  0  0  0  0  0  0  0
    2.2020   -6.4776    0.0000 F   0  0  0  0  0  0  0  0  0  0  0  0
    2.4990   -5.0799    0.0000 C   0  0  0  0  0  0  0  0  0  0  0  0
    0.9273   -2.5545    0.0000 C   0  0  0  0  0  0  0  0  0  0  0  0
    0.6723   -1.7698    0.0000 C   0  0  0  0  0  0  0  0  0  0  0  0
    3.3629    4.8105    0.0000 C   0  0  0  0  0  0  0  0  0  0  0  0
    2.6484    5.2230    0.0000 O   0  0  0  0  0  0  0  0  0  0  0  0
    2.6484    6.0480    0.0000 C   0  0  0  0  0  0  0  0  0  0  0  0
  1  2  1  0  0  0  0
  2  3  1  0  0  0  0
  3  4  2  0  0  0  0
  3 41  1  0  0  0  0
  4  5  1  0  0  0  0
  5  6  2  0  0  0  0
  6  7  1  0  0  0  0
  7  8  1  0  0  0  0
  7 41  2  0  0  0  0
  8  9  1  0  0  0  0
  9 10  1  0  0  0  0
 10 11  2  0  0  0  0
 10 12  1  0  0  0  0
 12 13  2  0  0  0  0
 12 24  1  0  0  0  0
 13 14  1  0  0  0  0
 13 18  1  0  0  0  0
 14 15  1  0  0  0  0
 15 16  1  0  0  0  0
 16 17  1  0  0  0  0
 17 18  1  0  0  0  0
 18 19  1  0  0  0  0
 19 20  2  0  0  0  0
 19 24  1  0  0  0  0
 20 21  1  0  0  0  0
 20 25  1  0  0  0  0
 21 22  2  0  0  0  0
 22 23  1  0  0  0  0
 23 24  2  0  0  0  0
 25 26  1  0  0  0  0
 25 40  1  0  0  0  0
 26 27  1  0  0  0  0
 27 28  1  0  0  0  0
 28 29  1  0  0  0  0
 28 39  1  0  0  0  0
 29 30  1  0  0  0  0
 30 31  1  0  0  0  0
 31 32  2  0  0  0  0
 31 38  1  0  0  0  0
 32 33  1  0  0  0  0
 33 34  2  0  0  0  0
 34 35  1  0  0  0  0
 34 36  1  0  0  0  0
 36 37  1  0  0  0  0
 36 38  2  0  0  0  0
 39 40  1  0  0  0  0
 41 42  1  0  0  0  0
 42 43  1  0  0  0  0
M  END
$$$$

 OpenBabel12191814062D

 26 28  0  0  0  0  0  0  0  0999 V2000
   -1.4289   -2.4750    0.0000 C   0  0  0  0  0  0  0  0  0  0  0  0
   -2.1434   -2.8875    0.0000 O   0  0  0  0  0  0  0  0  0  0  0  0
   -2.1434   -3.7125    0.0000 C   0  0  0  0  0  0  0  0  0  0  0  0
   -1.4289   -4.1250    0.0000 C   0  0  0  0  0  0  0  0  0  0  0  0
   -1.4289   -4.9500    0.0000 C   0  0  0  0  0  0  0  0  0  0  0  0
   -2.1434   -5.3625    0.0000 C   0  0  0  0  0  0  0  0  0  0  0  0
   -2.8579   -4.9500    0.0000 C   0  0  0  0  0  0  0  0  0  0  0  0
   -3.5724   -5.3625    0.0000 C   0  0  0  0  0  0  0  0  0  0  0  0
   -4.2868   -4.9500    0.0000 O   0  0  0  0  0  0  0  0  0  0  0  0
   -5.0013   -5.3625    0.0000 C   0  0  0  0  0  0  0  0  0  0  0  0
   -5.0013   -6.1875    0.0000 C   0  0  0  0  0  0  0  0  0  0  0  0
   -5.7158   -6.6000    0.0000 C   0  0  0  0  0  0  0  0  0  0  0  0
   -6.4302   -6.1875    0.0000 C   0  0  0  0  0  0  0  0  0  0  0  0
   -6.4302   -5.3625    0.0000 C   0  0  0  0  0  0  0  0  0  0  0  0
   -5.7158   -4.9500    0.0000 C   0  0  0  0  0  0  0  0  0  0  0  0
   -5.7158   -4.1250    0.0000 C   0  0  0  0  0  0  0  0  0  0  0  0
   -6.4302   -3.7125    0.0000 C   0  0  0  0  0  0  0  0  0  0  0  0
   -7.1447   -4.1250    0.0000 C   0  0  0  0  0  0  0  0  0  0  0  0
   -7.1447   -4.9500    0.0000 C   0  0  0  0  0  0  0  0  0  0  0  0
   -7.8592   -5.3625    0.0000 C   0  0  0  0  0  0  0  0  0  0  0  0
   -8.5737   -4.9500    0.0000 C   0  0  0  0  0  0  0  0  0  0  0  0
   -8.5737   -4.1250    0.0000 C   0  0  0  0  0  0  0  0  0  0  0  0
   -7.8592   -3.7125    0.0000 C   0  0  0  0  0  0  0  0  0  0  0  0
   -2.8579   -4.1250    0.0000 C   0  0  0  0  0  0  0  0  0  0  0  0
   -3.5724   -3.7125    0.0000 O   0  0  0  0  0  0  0  0  0  0  0  0
   -3.5724   -2.8875    0.0000 C   0  0  0  0  0  0  0  0  0  0  0  0
  1  2  1  0  0  0  0
  2  3  1  0  0  0  0
  3  4  2  0  0  0  0
  3 24  1  0  0  0  0
  4  5  1  0  0  0  0
  5  6  2  0  0  0  0
  6  7  1  0  0  0  0
  7  8  1  0  0  0  0
  7 24  2  0  0  0  0
  8  9  1  0  0  0  0
  9 10  1  0  0  0  0
 10 11  2  0  0  0  0
 10 15  1  0  0  0  0
 11 12  1  0  0  0  0
 12 13  2  0  0  0  0
 13 14  1  0  0  0  0
 14 15  2  0  0  0  0
 15 16  1  0  0  0  0
 16 17  1  0  0  0  0
 17 18  1  0  0  0  0
 18 19  2  0  0  0  0
 18 23  1  0  0  0  0
 19 20  1  0  0  0  0
 20 21  2  0  0  0  0
 21 22  1  0  0  0  0
 22 23  2  0  0  0  0
 24 25  1  0  0  0  0
 25 26  1  0  0  0  0
M  END
$$$$

 OpenBabel12191814062D

 41 45  0  0  0  0  0  0  0  0999 V2000
    2.1434   -5.3625    0.0000 C   0  0  0  0  0  0  0  0  0  0  0  0
    2.8579   -4.9500    0.0000 O   0  0  0  0  0  0  0  0  0  0  0  0
    2.8579   -4.1250    0.0000 C   0  0  0  0  0  0  0  0  0  0  0  0
    2.1434   -3.7125    0.0000 C   0  0  0  0  0  0  0  0  0  0  0  0
    2.1434   -2.8875    0.0000 C   0  0  0  0  0  0  0  0  0  0  0  0
    2.8579   -2.4750    0.0000 C   0  0  0  0  0  0  0  0  0  0  0  0
    3.5724   -2.8875    0.0000 C   0  0  0  0  0  0  0  0  0  0  0  0
    4.2868   -2.4750    0.0000 C   0  0  0  0  0  0  0  0  0  0  0  0
    4.2868   -1.6500    0.0000 O   0  0  0  0  0  0  0  0  0  0  0  0
    5.0013   -2.8875    0.0000 C   0  0  0  0  0  0  0  0  0  0  0  0
    5.7158   -2.4750    0.0000 C   0  0  0  0  0  0  0  0  0  0  0  0
    5.7158   -1.6500    0.0000 O   0  0  0  0  0  0  0  0  0  0  0  0
    6.4302   -2.8875    0.0000 C   0  0  0  0  0  0  0  0  0  0  0  0
    7.1447   -2.4750    0.0000 C   0  0  0  0  0  0  0  0  0  0  0  0
    7.8592   -2.8875    0.0000 C   0  0  3  0  0  0  0  0  0  0  0  0
    8.6716   -3.0308    0.0000 O   0  0  0  0  0  0  0  0  0  0  0  0
    7.8592   -3.7125    0.0000 C   0  0  0  0  0  0  0  0  0  0  0  0
    7.1447   -4.1250    0.0000 C   0  0  3  0  0  0  0  0  0  0  0  0
    7.1447   -4.9500    0.0000 O   0  0  0  0  0  0  0  0  0  0  0  0
    7.8592   -5.3625    0.0000 C   0  0  3  0  0  0  0  0  0  0  0  0
    8.5737   -4.9500    0.0000 C   0  0  0  0  0  0  0  0  0  0  0  0
    9.2881   -5.3625    0.0000 C   0  0  3  0  0  0  0  0  0  0  0  0
   10.0026   -4.9500    0.0000 N   0  0  0  0  0  0  0  0  0  0  0  0
   10.7171   -5.3625    0.0000 C   0  0  0  0  0  0  0  0  0  0  0  0
   11.4315   -4.9500    0.0000 C   0  0  0  0  0  0  0  0  0  0  0  0
   10.7171   -6.1875    0.0000 O   0  0  0  0  0  0  0  0  0  0  0  0
    9.2881   -6.1875    0.0000 C   0  0  3  0  0  0  0  0  0  0  0  0
   10.0026   -6.6000    0.0000 O   0  0  0  0  0  0  0  0  0  0  0  0
    8.5737   -6.6000    0.0000 C   0  0  3  0  0  0  0  0  0  0  0  0
    8.5737   -7.4250    0.0000 C   0  0  0  0  0  0  0  0  0  0  0  0
    7.8592   -6.1875    0.0000 O   0  0  0  0  0  0  0  0  0  0  0  0
    6.4302   -3.7125    0.0000 C   0  0  0  0  0  0  0  0  0  0  0  0
    5.7158   -4.1250    0.0000 C   0  0  0  0  0  0  0  0  0  0  0  0
    5.7158   -4.9500    0.0000 O   0  0  0  0  0  0  0  0  0  0  0  0
    5.0013   -3.7125    0.0000 C   0  0  0  0  0  0  0  0  0  0  0  0
    4.2868   -4.1250    0.0000 C   0  0  0  0  0  0  0  0  0  0  0  0
    4.2868   -4.9500    0.0000 O   0  0  0  0  0  0  0  0  0  0  0  0
    3.5724   -3.7125    0.0000 C   0  0  0  0  0  0  0  0  0  0  0  0
    8.1413   -2.1123    0.0000 C   0  0  0  0  0  0  0  0  0  0  0  0
    8.9538   -1.9690    0.0000 C   0  0  0  0  0  0  0  0  0  0  0  0
    7.6110   -1.4803    0.0000 O   0  0  0  0  0  0  0  0  0  0  0  0
  1  2  1  0  0  0  0
  2  3  1  0  0  0  0
  3  4  2  0  0  0  0
  3 38  1  0  0  0  0
  4  5  1  0  0  0  0
  5  6  2  0  0  0  0
  6  7  1  0  0  0  0
  7  8  1  0  0  0  0
  7 38  2  0  0  0  0
  8  9  2  0  0  0  0
  8 10  1  0  0  0  0
 10 11  2  0  0  0  0
 10 35  1  0  0  0  0
 11 12  1  0  0  0  0
 11 13  1  0  0  0  0
 13 14  1  0  0  0  0
 13 32  2  0  0  0  0
 14 15  1  0  0  0  0
 15 16  1  0  0  0  0
 15 17  1  0  0  0  0
 15 39  1  0  0  0  0
 17 18  1  0  0  0  0
 18 19  1  0  0  0  0
 18 32  1  0  0  0  0
 19 20  1  0  0  0  0
 20 21  1  0  0  0  0
 20 31  1  0  0  0  0
 21 22  1  0  0  0  0
 22 23  1  0  0  0  0
 22 27  1  0  0  0  0
 23 24  1  0  0  0  0
 24 25  1  0  0  0  0
 24 26  2  0  0  0  0
 27 28  1  0  0  0  0
 27 29  1  0  0  0  0
 29 30  1  0  0  0  0
 29 31  1  0  0  0  0
 32 33  1  0  0  0  0
 33 34  1  0  0  0  0
 33 35  2  0  0  0  0
 35 36  1  0  0  0  0
 36 37  2  0  0  0  0
 36 38  1  0  0  0  0
 39 40  1  0  0  0  0
 39 41  2  0  0  0  0
M  END
$$$$

 OpenBabel12191814062D

 17 19  0  0  0  0  0  0  0  0999 V2000
    4.2868   -1.6500    0.0000 C   0  0  0  0  0  0  0  0  0  0  0  0
    3.5724   -1.2375    0.0000 O   0  0  0  0  0  0  0  0  0  0  0  0
    3.5724   -0.4125    0.0000 C   0  0  0  0  0  0  0  0  0  0  0  0
    4.2868    0.0000    0.0000 C   0  0  0  0  0  0  0  0  0  0  0  0
    4.2868    0.8250    0.0000 C   0  0  0  0  0  0  0  0  0  0  0  0
    3.5724    1.2375    0.0000 C   0  0  0  0  0  0  0  0  0  0  0  0
    2.8579    0.8250    0.0000 C   0  0  0  0  0  0  0  0  0  0  0  0
    2.8579   -0.0000    0.0000 C   0  0  0  0  0  0  0  0  0  0  0  0
    2.1434   -0.4125    0.0000 N   0  0  0  0  0  0  0  0  0  0  0  0
    1.4289   -0.0000    0.0000 C   0  0  0  0  0  0  0  0  0  0  0  0
    0.7145   -0.4125    0.0000 C   0  0  0  0  0  0  0  0  0  0  0  0
   -0.0000    0.0000    0.0000 C   0  0  0  0  0  0  0  0  0  0  0  0
    0.0000    0.8250    0.0000 C   0  0  0  0  0  0  0  0  0  0  0  0
    0.7145    1.2375    0.0000 C   0  0  0  0  0  0  0  0  0  0  0  0
    1.4289    0.8250    0.0000 C   0  0  0  0  0  0  0  0  0  0  0  0
    2.1434    1.2375    0.0000 C   0  0  0  0  0  0  0  0  0  0  0  0
    2.1434    2.0625    0.0000 O   0  0  0  0  0  0  0  0  0  0  0  0
  1  2  1  0  0  0  0
  2  3  1  0  0  0  0
  3  4  2  0  0  0  0
  3  8  1  0  0  0  0
  4  5  1  0  0  0  0
  5  6  2  0  0  0  0
  6  7  1  0  0  0  0
  7  8  2  0  0  0  0
  7 16  1  0  0  0  0
  8  9  1  0  0  0  0
  9 10  1  0  0  0  0
 10 11  2  0  0  0  0
 10 15  1  0  0  0  0
 11 12  1  0  0  0  0
 12 13  2  0  0  0  0
 13 14  1  0  0  0  0
 14 15  2  0  0  0  0
 15 16  1  0  0  0  0
 16 17  2  0  0  0  0
M  END
$$$$

 OpenBabel12191814062D

 22 24  0  0  0  0  0  0  0  0999 V2000
   -2.1434    1.2375    0.0000 C   0  0  0  0  0  0  0  0  0  0  0  0
   -2.1434    0.4125    0.0000 O   0  0  0  0  0  0  0  0  0  0  0  0
   -2.8579   -0.0000    0.0000 C   0  0  0  0  0  0  0  0  0  0  0  0
   -3.5724    0.4125    0.0000 C   0  0  0  0  0  0  0  0  0  0  0  0
   -4.2868   -0.0000    0.0000 C   0  0  0  0  0  0  0  0  0  0  0  0
   -4.2868   -0.8250    0.0000 C   0  0  0  0  0  0  0  0  0  0  0  0
   -3.5724   -1.2375    0.0000 C   0  0  0  0  0  0  0  0  0  0  0  0
   -2.8579   -0.8250    0.0000 C   0  0  0  0  0  0  0  0  0  0  0  0
   -2.1434   -1.2375    0.0000 N   0  0  0  0  0  0  0  0  0  0  0  0
   -1.4289   -0.8250    0.0000 C   0  0  0  0  0  0  0  0  0  0  0  0
   -0.7145   -1.2375    0.0000 C   0  0  0  0  0  0  0  0  0  0  0  0
    0.0000   -0.8250    0.0000 C   0  0  0  0  0  0  0  0  0  0  0  0
    0.7145   -1.2375    0.0000 C   0  0  0  0  0  0  0  0  0  0  0  0
    1.4289   -0.8250    0.0000 Cl  0  0  0  0  0  0  0  0  0  0  0  0
   -2.1434   -2.0625    0.0000 C   0  0  0  0  0  0  0  0  0  0  0  0
   -1.4289   -2.4750    0.0000 C   0  0  0  0  0  0  0  0  0  0  0  0
   -1.4289   -3.3000    0.0000 C   0  0  0  0  0  0  0  0  0  0  0  0
   -2.1434   -3.7125    0.0000 C   0  0  0  0  0  0  0  0  0  0  0  0
   -2.8579   -3.3000    0.0000 C   0  0  0  0  0  0  0  0  0  0  0  0
   -2.8579   -2.4750    0.0000 C   0  0  0  0  0  0  0  0  0  0  0  0
   -3.5724   -2.0625    0.0000 C   0  0  0  0  0  0  0  0  0  0  0  0
   -4.2868   -2.4750    0.0000 O   0  0  0  0  0  0  0  0  0  0  0  0
  1  2  1  0  0  0  0
  2  3  1  0  0  0  0
  3  4  2  0  0  0  0
  3  8  1  0  0  0  0
  4  5  1  0  0  0  0
  5  6  2  0  0  0  0
  6  7  1  0  0  0  0
  7  8  2  0  0  0  0
  7 21  1  0  0  0  0
  8  9  1  0  0  0  0
  9 10  1  0  0  0  0
  9 15  1  0  0  0  0
 10 11  1  0  0  0  0
 11 12  1  0  0  0  0
 12 13  1  0  0  0  0
 13 14  1  0  0  0  0
 15 16  2  0  0  0  0
 15 20  1  0  0  0  0
 16 17  1  0  0  0  0
 17 18  2  0  0  0  0
 18 19  1  0  0  0  0
 19 20  2  0  0  0  0
 20 21  1  0  0  0  0
 21 22  2  0  0  0  0
M  END
$$$$

 OpenBabel12191814062D

 21 23  0  0  0  0  0  0  0  0999 V2000
    4.2868   -1.6500    0.0000 C   0  0  0  0  0  0  0  0  0  0  0  0
    3.5724   -1.2375    0.0000 O   0  0  0  0  0  0  0  0  0  0  0  0
    3.5724   -0.4125    0.0000 C   0  0  0  0  0  0  0  0  0  0  0  0
    4.2868    0.0000    0.0000 C   0  0  0  0  0  0  0  0  0  0  0  0
    4.2868    0.8250    0.0000 C   0  0  0  0  0  0  0  0  0  0  0  0
    3.5724    1.2375    0.0000 C   0  0  0  0  0  0  0  0  0  0  0  0
    2.8579    0.8250    0.0000 C   0  0  0  0  0  0  0  0  0  0  0  0
    2.8579   -0.0000    0.0000 C   0  0  0  0  0  0  0  0  0  0  0  0
    2.1434   -0.4125    0.0000 N   0  0  0  0  0  0  0  0  0  0  0  0
    2.1434   -1.2375    0.0000 C   0  0  0  0  0  0  0  0  0  0  0  0
    2.8579   -1.6500    0.0000 C   0  0  0  0  0  0  0  0  0  0  0  0
    2.8579   -2.4750    0.0000 C   0  0  0  0  0  0  0  0  0  0  0  0
    3.5724   -2.8875    0.0000 Cl  0  0  0  0  0  0  0  0  0  0  0  0
    1.4289   -0.0000    0.0000 C   0  0  0  0  0  0  0  0  0  0  0  0
    0.7145   -0.4125    0.0000 C   0  0  0  0  0  0  0  0  0  0  0  0
   -0.0000    0.0000    0.0000 C   0  0  0  0  0  0  0  0  0  0  0  0
    0.0000    0.8250    0.0000 C   0  0  0  0  0  0  0  0  0  0  0  0
    0.7145    1.2375    0.0000 C   0  0  0  0  0  0  0  0  0  0  0  0
    1.4289    0.8250    0.0000 C   0  0  0  0  0  0  0  0  0  0  0  0
    2.1434    1.2375    0.0000 C   0  0  0  0  0  0  0  0  0  0  0  0
    2.1434    2.0625    0.0000 O   0  0  0  0  0  0  0  0  0  0  0  0
  1  2  1  0  0  0  0
  2  3  1  0  0  0  0
  3  4  2  0  0  0  0
  3  8  1  0  0  0  0
  4  5  1  0  0  0  0
  5  6  2  0  0  0  0
  6  7  1  0  0  0  0
  7  8  2  0  0  0  0
  7 20  1  0  0  0  0
  8  9  1  0  0  0  0
  9 10  1  0  0  0  0
  9 14  1  0  0  0  0
 10 11  1  0  0  0  0
 11 12  1  0  0  0  0
 12 13  1  0  0  0  0
 14 15  2  0  0  0  0
 14 19  1  0  0  0  0
 15 16  1  0  0  0  0
 16 17  2  0  0  0  0
 17 18  1  0  0  0  0
 18 19  2  0  0  0  0
 19 20  1  0  0  0  0
 20 21  2  0  0  0  0
M  END
$$$$

 OpenBabel12191814062D

 28 30  0  0  0  0  0  0  0  0999 V2000
    0.8101    0.3768    0.0000 C   0  0  0  0  0  0  0  0  0  0  0  0
    0.2700   -0.2468    0.0000 O   0  0  0  0  0  0  0  0  0  0  0  0
   -0.5401   -0.0909    0.0000 C   0  0  0  0  0  0  0  0  0  0  0  0
   -0.8101    0.6887    0.0000 C   0  0  0  0  0  0  0  0  0  0  0  0
   -1.6203    0.8446    0.0000 C   0  0  0  0  0  0  0  0  0  0  0  0
   -2.1604    0.2209    0.0000 C   0  0  0  0  0  0  0  0  0  0  0  0
   -1.8903   -0.5586    0.0000 C   0  0  0  0  0  0  0  0  0  0  0  0
   -1.0802   -0.7145    0.0000 C   0  0  0  0  0  0  0  0  0  0  0  0
   -0.8101   -1.4941    0.0000 N   0  0  0  0  0  0  0  0  0  0  0  0
    0.0000   -1.6500    0.0000 C   0  0  0  0  0  0  0  0  0  0  0  0
    0.5401   -1.0264    0.0000 C   0  0  0  0  0  0  0  0  0  0  0  0
    1.3502   -1.1823    0.0000 C   0  0  0  0  0  0  0  0  0  0  0  0
    1.8903   -0.5586    0.0000 C   0  0  0  0  0  0  0  0  0  0  0  0
    2.7004   -0.7145    0.0000 N   0  0  0  0  0  0  0  0  0  0  0  0
    3.2405   -0.0909    0.0000 C   0  0  0  0  0  0  0  0  0  0  0  0
    4.0507   -0.2468    0.0000 C   0  0  0  0  0  0  0  0  0  0  0  0
    4.5908    0.3768    0.0000 O   0  0  0  0  0  0  0  0  0  0  0  0
    2.9705   -1.4941    0.0000 C   0  0  0  0  0  0  0  0  0  0  0  0
    3.7806   -1.6500    0.0000 C   0  0  0  0  0  0  0  0  0  0  0  0
    4.0507   -2.4296    0.0000 O   0  0  0  0  0  0  0  0  0  0  0  0
   -1.3502   -2.1177    0.0000 C   0  0  0  0  0  0  0  0  0  0  0  0
   -1.0802   -2.8973    0.0000 C   0  0  0  0  0  0  0  0  0  0  0  0
   -1.6203   -3.5209    0.0000 C   0  0  0  0  0  0  0  0  0  0  0  0
   -2.4304   -3.3650    0.0000 C   0  0  0  0  0  0  0  0  0  0  0  0
   -2.7004   -2.5855    0.0000 C   0  0  0  0  0  0  0  0  0  0  0  0
   -2.1604   -1.9618    0.0000 C   0  0  0  0  0  0  0  0  0  0  0  0
   -2.4304   -1.1823    0.0000 C   0  0  0  0  0  0  0  0  0  0  0  0
   -3.2405   -1.0264    0.0000 O   0  0  0  0  0  0  0  0  0  0  0  0
  1  2  1  0  0  0  0
  2  3  1  0  0  0  0
  3  4  2  0  0  0  0
  3  8  1  0  0  0  0
  4  5  1  0  0  0  0
  5  6  2  0  0  0  0
  6  7  1  0  0  0  0
  7  8  2  0  0  0  0
  7 27  1  0  0  0  0
  8  9  1  0  0  0  0
  9 10  1  0  0  0  0
  9 21  1  0  0  0  0
 10 11  1  0  0  0  0
 11 12  1  0  0  0  0
 12 13  1  0  0  0  0
 13 14  1  0  0  0  0
 14 15  1  0  0  0  0
 14 18  1  0  0  0  0
 15 16  1  0  0  0  0
 16 17  1  0  0  0  0
 18 19  1  0  0  0  0
 19 20  1  0  0  0  0
 21 22  2  0  0  0  0
 21 26  1  0  0  0  0
 22 23  1  0  0  0  0
 23 24  2  0  0  0  0
 24 25  1  0  0  0  0
 25 26  2  0  0  0  0
 26 27  1  0  0  0  0
 27 28  2  0  0  0  0
M  END
$$$$

 OpenBabel12191814062D

 27 30  0  0  0  0  0  0  0  0999 V2000
    4.2868   -1.6500    0.0000 C   0  0  0  0  0  0  0  0  0  0  0  0
    3.5724   -1.2375    0.0000 O   0  0  0  0  0  0  0  0  0  0  0  0
    3.5724   -0.4125    0.0000 C   0  0  0  0  0  0  0  0  0  0  0  0
    4.2868    0.0000    0.0000 C   0  0  0  0  0  0  0  0  0  0  0  0
    4.2868    0.8250    0.0000 C   0  0  0  0  0  0  0  0  0  0  0  0
    3.5724    1.2375    0.0000 C   0  0  0  0  0  0  0  0  0  0  0  0
    2.8579    0.8250    0.0000 C   0  0  0  0  0  0  0  0  0  0  0  0
    2.8579   -0.0000    0.0000 C   0  0  0  0  0  0  0  0  0  0  0  0
    2.1434   -0.4125    0.0000 N   0  0  0  0  0  0  0  0  0  0  0  0
    2.1434   -1.2375    0.0000 C   0  0  0  0  0  0  0  0  0  0  0  0
    2.8579   -1.6500    0.0000 C   0  0  0  0  0  0  0  0  0  0  0  0
    2.8579   -2.4750    0.0000 C   0  0  0  0  0  0  0  0  0  0  0  0
    2.1434   -2.8875    0.0000 C   0  0  0  0  0  0  0  0  0  0  0  0
    1.4289   -2.4750    0.0000 N   0  0  0  0  0  0  0  0  0  0  0  0
    0.7145   -2.8875    0.0000 C   0  0  0  0  0  0  0  0  0  0  0  0
    0.0000   -2.4750    0.0000 C   0  0  0  0  0  0  0  0  0  0  0  0
    0.0000   -1.6500    0.0000 C   0  0  0  0  0  0  0  0  0  0  0  0
    0.7145   -1.2375    0.0000 C   0  0  0  0  0  0  0  0  0  0  0  0
    1.4289   -1.6500    0.0000 C   0  0  0  0  0  0  0  0  0  0  0  0
    1.4289   -0.0000    0.0000 C   0  0  0  0  0  0  0  0  0  0  0  0
    0.7145   -0.4125    0.0000 C   0  0  0  0  0  0  0  0  0  0  0  0
   -0.0000    0.0000    0.0000 C   0  0  0  0  0  0  0  0  0  0  0  0
    0.0000    0.8250    0.0000 C   0  0  0  0  0  0  0  0  0  0  0  0
    0.7145    1.2375    0.0000 C   0  0  0  0  0  0  0  0  0  0  0  0
    1.4289    0.8250    0.0000 C   0  0  0  0  0  0  0  0  0  0  0  0
    2.1434    1.2375    0.0000 C   0  0  0  0  0  0  0  0  0  0  0  0
    2.1434    2.0625    0.0000 O   0  0  0  0  0  0  0  0  0  0  0  0
  1  2  1  0  0  0  0
  2  3  1  0  0  0  0
  3  4  2  0  0  0  0
  3  8  1  0  0  0  0
  4  5  1  0  0  0  0
  5  6  2  0  0  0  0
  6  7  1  0  0  0  0
  7  8  2  0  0  0  0
  7 26  1  0  0  0  0
  8  9  1  0  0  0  0
  9 10  1  0  0  0  0
  9 20  1  0  0  0  0
 10 11  1  0  0  0  0
 11 12  1  0  0  0  0
 12 13  1  0  0  0  0
 13 14  1  0  0  0  0
 14 15  1  0  0  0  0
 14 19  1  0  0  0  0
 15 16  1  0  0  0  0
 16 17  1  0  0  0  0
 17 18  1  0  0  0  0
 18 19  1  0  0  0  0
 20 21  2  0  0  0  0
 20 25  1  0  0  0  0
 21 22  1  0  0  0  0
 22 23  2  0  0  0  0
 23 24  1  0  0  0  0
 24 25  2  0  0  0  0
 25 26  1  0  0  0  0
 26 27  2  0  0  0  0
M  END
$$$$

 OpenBabel12191814062D

 28 31  0  0  0  0  0  0  0  0999 V2000
    4.2868   -1.6500    0.0000 C   0  0  0  0  0  0  0  0  0  0  0  0
    3.5724   -1.2375    0.0000 O   0  0  0  0  0  0  0  0  0  0  0  0
    3.5724   -0.4125    0.0000 C   0  0  0  0  0  0  0  0  0  0  0  0
    4.2868    0.0000    0.0000 C   0  0  0  0  0  0  0  0  0  0  0  0
    4.2868    0.8250    0.0000 C   0  0  0  0  0  0  0  0  0  0  0  0
    3.5724    1.2375    0.0000 C   0  0  0  0  0  0  0  0  0  0  0  0
    2.8579    0.8250    0.0000 C   0  0  0  0  0  0  0  0  0  0  0  0
    2.8579   -0.0000    0.0000 C   0  0  0  0  0  0  0  0  0  0  0  0
    2.1434   -0.4125    0.0000 N   0  0  0  0  0  0  0  0  0  0  0  0
    2.1434   -1.2375    0.0000 C   0  0  0  0  0  0  0  0  0  0  0  0
    2.8579   -1.6500    0.0000 C   0  0  0  0  0  0  0  0  0  0  0  0
    2.8579   -2.4750    0.0000 C   0  0  0  0  0  0  0  0  0  0  0  0
    2.1434   -2.8875    0.0000 C   0  0  0  0  0  0  0  0  0  0  0  0
    1.4289   -2.4750    0.0000 N   0  0  0  0  0  0  0  0  0  0  0  0
    0.7145   -2.8875    0.0000 C   0  0  0  0  0  0  0  0  0  0  0  0
    0.0000   -2.4750    0.0000 C   0  0  0  0  0  0  0  0  0  0  0  0
    0.0000   -1.6500    0.0000 N   0  0  0  0  0  0  0  0  0  0  0  0
   -0.7145   -1.2375    0.0000 C   0  0  0  0  0  0  0  0  0  0  0  0
    0.7145   -1.2375    0.0000 C   0  0  0  0  0  0  0  0  0  0  0  0
    1.4289   -1.6500    0.0000 C   0  0  0  0  0  0  0  0  0  0  0  0
    1.4289   -0.0000    0.0000 C   0  0  0  0  0  0  0  0  0  0  0  0
    0.7145   -0.4125    0.0000 C   0  0  0  0  0  0  0  0  0  0  0  0
   -0.0000    0.0000    0.0000 C   0  0  0  0  0  0  0  0  0  0  0  0
    0.0000    0.8250    0.0000 C   0  0  0  0  0  0  0  0  0  0  0  0
    0.7145    1.2375    0.0000 C   0  0  0  0  0  0  0  0  0  0  0  0
    1.4289    0.8250    0.0000 C   0  0  0  0  0  0  0  0  0  0  0  0
    2.1434    1.2375    0.0000 C   0  0  0  0  0  0  0  0  0  0  0  0
    2.1434    2.0625    0.0000 O   0  0  0  0  0  0  0  0  0  0  0  0
  1  2  1  0  0  0  0
  2  3  1  0  0  0  0
  3  4  2  0  0  0  0
  3  8  1  0  0  0  0
  4  5  1  0  0  0  0
  5  6  2  0  0  0  0
  6  7  1  0  0  0  0
  7  8  2  0  0  0  0
  7 27  1  0  0  0  0
  8  9  1  0  0  0  0
  9 10  1  0  0  0  0
  9 21  1  0  0  0  0
 10 11  1  0  0  0  0
 11 12  1  0  0  0  0
 12 13  1  0  0  0  0
 13 14  1  0  0  0  0
 14 15  1  0  0  0  0
 14 20  1  0  0  0  0
 15 16  1  0  0  0  0
 16 17  1  0  0  0  0
 17 18  1  0  0  0  0
 17 19  1  0  0  0  0
 19 20  1  0  0  0  0
 21 22  2  0  0  0  0
 21 26  1  0  0  0  0
 22 23  1  0  0  0  0
 23 24  2  0  0  0  0
 24 25  1  0  0  0  0
 25 26  2  0  0  0  0
 26 27  1  0  0  0  0
 27 28  2  0  0  0  0
M  END
$$$$

 OpenBabel12191814062D

 30 33  0  0  0  0  0  0  0  0999 V2000
    4.2868   -1.6500    0.0000 C   0  0  0  0  0  0  0  0  0  0  0  0
    3.5724   -1.2375    0.0000 O   0  0  0  0  0  0  0  0  0  0  0  0
    3.5724   -0.4125    0.0000 C   0  0  0  0  0  0  0  0  0  0  0  0
    4.2868    0.0000    0.0000 C   0  0  0  0  0  0  0  0  0  0  0  0
    4.2868    0.8250    0.0000 C   0  0  0  0  0  0  0  0  0  0  0  0
    3.5724    1.2375    0.0000 C   0  0  0  0  0  0  0  0  0  0  0  0
    2.8579    0.8250    0.0000 C   0  0  0  0  0  0  0  0  0  0  0  0
    2.8579   -0.0000    0.0000 C   0  0  0  0  0  0  0  0  0  0  0  0
    2.1434   -0.4125    0.0000 N   0  0  0  0  0  0  0  0  0  0  0  0
    2.1434   -1.2375    0.0000 C   0  0  0  0  0  0  0  0  0  0  0  0
    1.4289   -1.6500    0.0000 C   0  0  0  0  0  0  0  0  0  0  0  0
    1.4289   -2.4750    0.0000 C   0  0  0  0  0  0  0  0  0  0  0  0
    2.1434   -2.8875    0.0000 C   0  0  0  0  0  0  0  0  0  0  0  0
    2.1434   -3.7125    0.0000 N   0  0  0  0  0  0  0  0  0  0  0  0
    2.8579   -4.1250    0.0000 C   0  0  0  0  0  0  0  0  0  0  0  0
    2.8579   -4.9500    0.0000 C   0  0  0  0  0  0  0  0  0  0  0  0
    2.1434   -5.3625    0.0000 N   0  0  0  0  0  0  0  0  0  0  0  0
    2.1434   -6.1875    0.0000 C   0  0  0  0  0  0  0  0  0  0  0  0
    1.4289   -6.6000    0.0000 C   0  0  0  0  0  0  0  0  0  0  0  0
    1.4289   -7.4250    0.0000 O   0  0  0  0  0  0  0  0  0  0  0  0
    1.4289   -4.9500    0.0000 C   0  0  0  0  0  0  0  0  0  0  0  0
    1.4289   -4.1250    0.0000 C   0  0  0  0  0  0  0  0  0  0  0  0
    1.4289   -0.0000    0.0000 C   0  0  0  0  0  0  0  0  0  0  0  0
    0.7145   -0.4125    0.0000 C   0  0  0  0  0  0  0  0  0  0  0  0
   -0.0000    0.0000    0.0000 C   0  0  0  0  0  0  0  0  0  0  0  0
    0.0000    0.8250    0.0000 C   0  0  0  0  0  0  0  0  0  0  0  0
    0.7145    1.2375    0.0000 C   0  0  0  0  0  0  0  0  0  0  0  0
    1.4289    0.8250    0.0000 C   0  0  0  0  0  0  0  0  0  0  0  0
    2.1434    1.2375    0.0000 C   0  0  0  0  0  0  0  0  0  0  0  0
    2.1434    2.0625    0.0000 O   0  0  0  0  0  0  0  0  0  0  0  0
  1  2  1  0  0  0  0
  2  3  1  0  0  0  0
  3  4  2  0  0  0  0
  3  8  1  0  0  0  0
  4  5  1  0  0  0  0
  5  6  2  0  0  0  0
  6  7  1  0  0  0  0
  7  8  2  0  0  0  0
  7 29  1  0  0  0  0
  8  9  1  0  0  0  0
  9 10  1  0  0  0  0
  9 23  1  0  0  0  0
 10 11  1  0  0  0  0
 11 12  1  0  0  0  0
 12 13  1  0  0  0  0
 13 14  1  0  0  0  0
 14 15  1  0  0  0  0
 14 22  1  0  0  0  0
 15 16  1  0  0  0  0
 16 17  1  0  0  0  0
 17 18  1  0  0  0  0
 17 21  1  0  0  0  0
 18 19  1  0  0  0  0
 19 20  1  0  0  0  0
 21 22  1  0  0  0  0
 23 24  2  0  0  0  0
 23 28  1  0  0  0  0
 24 25  1  0  0  0  0
 25 26  2  0  0  0  0
 26 27  1  0  0  0  0
 27 28  2  0  0  0  0
 28 29  1  0  0  0  0
 29 30  2  0  0  0  0
M  END
$$$$

 OpenBabel12191814062D

 27 30  0  0  0  0  0  0  0  0999 V2000
    4.2868   -1.6500    0.0000 C   0  0  0  0  0  0  0  0  0  0  0  0
    3.5724   -1.2375    0.0000 O   0  0  0  0  0  0  0  0  0  0  0  0
    3.5724   -0.4125    0.0000 C   0  0  0  0  0  0  0  0  0  0  0  0
    4.2868    0.0000    0.0000 C   0  0  0  0  0  0  0  0  0  0  0  0
    4.2868    0.8250    0.0000 C   0  0  0  0  0  0  0  0  0  0  0  0
    3.5724    1.2375    0.0000 C   0  0  0  0  0  0  0  0  0  0  0  0
    2.8579    0.8250    0.0000 C   0  0  0  0  0  0  0  0  0  0  0  0
    2.8579   -0.0000    0.0000 C   0  0  0  0  0  0  0  0  0  0  0  0
    2.1434   -0.4125    0.0000 N   0  0  0  0  0  0  0  0  0  0  0  0
    2.1434   -1.2375    0.0000 C   0  0  0  0  0  0  0  0  0  0  0  0
    2.8579   -1.6500    0.0000 C   0  0  0  0  0  0  0  0  0  0  0  0
    2.8579   -2.4750    0.0000 C   0  0  0  0  0  0  0  0  0  0  0  0
    2.1434   -2.8875    0.0000 C   0  0  0  0  0  0  0  0  0  0  0  0
    1.4289   -2.4750    0.0000 N   0  0  0  0  0  0  0  0  0  0  0  0
    0.7145   -2.8875    0.0000 C   0  0  0  0  0  0  0  0  0  0  0  0
    0.0000   -2.4750    0.0000 C   0  0  0  0  0  0  0  0  0  0  0  0
    0.0000   -1.6500    0.0000 O   0  0  0  0  0  0  0  0  0  0  0  0
    0.7145   -1.2375    0.0000 C   0  0  0  0  0  0  0  0  0  0  0  0
    1.4289   -1.6500    0.0000 C   0  0  0  0  0  0  0  0  0  0  0  0
    1.4289   -0.0000    0.0000 C   0  0  0  0  0  0  0  0  0  0  0  0
    0.7145   -0.4125    0.0000 C   0  0  0  0  0  0  0  0  0  0  0  0
   -0.0000    0.0000    0.0000 C   0  0  0  0  0  0  0  0  0  0  0  0
    0.0000    0.8250    0.0000 C   0  0  0  0  0  0  0  0  0  0  0  0
    0.7145    1.2375    0.0000 C   0  0  0  0  0  0  0  0  0  0  0  0
    1.4289    0.8250    0.0000 C   0  0  0  0  0  0  0  0  0  0  0  0
    2.1434    1.2375    0.0000 C   0  0  0  0  0  0  0  0  0  0  0  0
    2.1434    2.0625    0.0000 O   0  0  0  0  0  0  0  0  0  0  0  0
  1  2  1  0  0  0  0
  2  3  1  0  0  0  0
  3  4  2  0  0  0  0
  3  8  1  0  0  0  0
  4  5  1  0  0  0  0
  5  6  2  0  0  0  0
  6  7  1  0  0  0  0
  7  8  2  0  0  0  0
  7 26  1  0  0  0  0
  8  9  1  0  0  0  0
  9 10  1  0  0  0  0
  9 20  1  0  0  0  0
 10 11  1  0  0  0  0
 11 12  1  0  0  0  0
 12 13  1  0  0  0  0
 13 14  1  0  0  0  0
 14 15  1  0  0  0  0
 14 19  1  0  0  0  0
 15 16  1  0  0  0  0
 16 17  1  0  0  0  0
 17 18  1  0  0  0  0
 18 19  1  0  0  0  0
 20 21  2  0  0  0  0
 20 25  1  0  0  0  0
 21 22  1  0  0  0  0
 22 23  2  0  0  0  0
 23 24  1  0  0  0  0
 24 25  2  0  0  0  0
 25 26  1  0  0  0  0
 26 27  2  0  0  0  0
M  END
$$$$

 OpenBabel12191814062D

 27 29  0  0  0  0  0  0  0  0999 V2000
   -3.1895    0.1914    0.0000 C   0  0  0  0  0  0  0  0  0  0  0  0
   -2.7770   -0.5230    0.0000 O   0  0  0  0  0  0  0  0  0  0  0  0
   -3.1895   -1.2375    0.0000 C   0  0  0  0  0  0  0  0  0  0  0  0
   -4.0145   -1.2375    0.0000 C   0  0  0  0  0  0  0  0  0  0  0  0
   -4.4270   -1.9520    0.0000 C   0  0  0  0  0  0  0  0  0  0  0  0
   -4.0145   -2.6664    0.0000 C   0  0  0  0  0  0  0  0  0  0  0  0
   -3.1895   -2.6664    0.0000 C   0  0  0  0  0  0  0  0  0  0  0  0
   -2.7770   -1.9520    0.0000 C   0  0  0  0  0  0  0  0  0  0  0  0
   -1.9520   -1.9520    0.0000 N   0  0  0  0  0  0  0  0  0  0  0  0
   -1.5395   -1.2375    0.0000 C   0  0  0  0  0  0  0  0  0  0  0  0
   -0.7145   -1.2375    0.0000 C   0  0  0  0  0  0  0  0  0  0  0  0
   -0.3020   -0.5230    0.0000 C   0  0  0  0  0  0  0  0  0  0  0  0
    0.5230   -0.5230    0.0000 N   0  0  0  0  0  0  0  0  0  0  0  0
    0.9355    0.1914    0.0000 C   0  0  0  0  0  0  0  0  0  0  0  0
    1.7605    0.1914    0.0000 C   0  0  0  0  0  0  0  0  0  0  0  0
    2.1730    0.9059    0.0000 O   0  0  0  0  0  0  0  0  0  0  0  0
    0.9355   -1.2375    0.0000 C   0  0  0  0  0  0  0  0  0  0  0  0
    1.7605   -1.2375    0.0000 C   0  0  0  0  0  0  0  0  0  0  0  0
    2.1730   -1.9520    0.0000 O   0  0  0  0  0  0  0  0  0  0  0  0
   -1.5395   -2.6664    0.0000 C   0  0  0  0  0  0  0  0  0  0  0  0
   -0.7145   -2.6664    0.0000 C   0  0  0  0  0  0  0  0  0  0  0  0
   -0.3020   -3.3809    0.0000 C   0  0  0  0  0  0  0  0  0  0  0  0
   -0.7145   -4.0954    0.0000 C   0  0  0  0  0  0  0  0  0  0  0  0
   -1.5395   -4.0954    0.0000 C   0  0  0  0  0  0  0  0  0  0  0  0
   -1.9520   -3.3809    0.0000 C   0  0  0  0  0  0  0  0  0  0  0  0
   -2.7770   -3.3809    0.0000 C   0  0  0  0  0  0  0  0  0  0  0  0
   -3.1895   -4.0954    0.0000 O   0  0  0  0  0  0  0  0  0  0  0  0
  1  2  1  0  0  0  0
  2  3  1  0  0  0  0
  3  4  2  0  0  0  0
  3  8  1  0  0  0  0
  4  5  1  0  0  0  0
  5  6  2  0  0  0  0
  6  7  1  0  0  0  0
  7  8  2  0  0  0  0
  7 26  1  0  0  0  0
  8  9  1  0  0  0  0
  9 10  1  0  0  0  0
  9 20  1  0  0  0  0
 10 11  1  0  0  0  0
 11 12  1  0  0  0  0
 12 13  1  0  0  0  0
 13 14  1  0  0  0  0
 13 17  1  0  0  0  0
 14 15  1  0  0  0  0
 15 16  1  0  0  0  0
 17 18  1  0  0  0  0
 18 19  1  0  0  0  0
 20 21  2  0  0  0  0
 20 25  1  0  0  0  0
 21 22  1  0  0  0  0
 22 23  2  0  0  0  0
 23 24  1  0  0  0  0
 24 25  2  0  0  0  0
 25 26  1  0  0  0  0
 26 27  2  0  0  0  0
M  END
$$$$

 OpenBabel12191814062D

 26 29  0  0  0  0  0  0  0  0999 V2000
    4.2868   -1.6500    0.0000 C   0  0  0  0  0  0  0  0  0  0  0  0
    3.5724   -1.2375    0.0000 O   0  0  0  0  0  0  0  0  0  0  0  0
    3.5724   -0.4125    0.0000 C   0  0  0  0  0  0  0  0  0  0  0  0
    4.2868    0.0000    0.0000 C   0  0  0  0  0  0  0  0  0  0  0  0
    4.2868    0.8250    0.0000 C   0  0  0  0  0  0  0  0  0  0  0  0
    3.5724    1.2375    0.0000 C   0  0  0  0  0  0  0  0  0  0  0  0
    2.8579    0.8250    0.0000 C   0  0  0  0  0  0  0  0  0  0  0  0
    2.8579   -0.0000    0.0000 C   0  0  0  0  0  0  0  0  0  0  0  0
    2.1434   -0.4125    0.0000 N   0  0  0  0  0  0  0  0  0  0  0  0
    2.1434   -1.2375    0.0000 C   0  0  0  0  0  0  0  0  0  0  0  0
    1.4289   -1.6500    0.0000 C   0  0  0  0  0  0  0  0  0  0  0  0
    1.4289   -2.4750    0.0000 C   0  0  0  0  0  0  0  0  0  0  0  0
    0.7145   -2.8875    0.0000 N   0  0  0  0  0  0  0  0  0  0  0  0
    0.7145   -3.7125    0.0000 C   0  0  0  0  0  0  0  0  0  0  0  0
    0.0000   -4.1250    0.0000 C   0  0  0  0  0  0  0  0  0  0  0  0
   -0.7145   -3.7125    0.0000 C   0  0  0  0  0  0  0  0  0  0  0  0
   -0.7145   -2.8875    0.0000 C   0  0  0  0  0  0  0  0  0  0  0  0
    0.0000   -2.4750    0.0000 C   0  0  0  0  0  0  0  0  0  0  0  0
    1.4289   -0.0000    0.0000 C   0  0  0  0  0  0  0  0  0  0  0  0
    0.7145   -0.4125    0.0000 C   0  0  0  0  0  0  0  0  0  0  0  0
   -0.0000    0.0000    0.0000 C   0  0  0  0  0  0  0  0  0  0  0  0
    0.0000    0.8250    0.0000 C   0  0  0  0  0  0  0  0  0  0  0  0
    0.7145    1.2375    0.0000 C   0  0  0  0  0  0  0  0  0  0  0  0
    1.4289    0.8250    0.0000 C   0  0  0  0  0  0  0  0  0  0  0  0
    2.1434    1.2375    0.0000 C   0  0  0  0  0  0  0  0  0  0  0  0
    2.1434    2.0625    0.0000 O   0  0  0  0  0  0  0  0  0  0  0  0
  1  2  1  0  0  0  0
  2  3  1  0  0  0  0
  3  4  2  0  0  0  0
  3  8  1  0  0  0  0
  4  5  1  0  0  0  0
  5  6  2  0  0  0  0
  6  7  1  0  0  0  0
  7  8  2  0  0  0  0
  7 25  1  0  0  0  0
  8  9  1  0  0  0  0
  9 10  1  0  0  0  0
  9 19  1  0  0  0  0
 10 11  1  0  0  0  0
 11 12  1  0  0  0  0
 12 13  1  0  0  0  0
 13 14  1  0  0  0  0
 13 18  1  0  0  0  0
 14 15  1  0  0  0  0
 15 16  1  0  0  0  0
 16 17  1  0  0  0  0
 17 18  1  0  0  0  0
 19 20  2  0  0  0  0
 19 24  1  0  0  0  0
 20 21  1  0  0  0  0
 21 22  2  0  0  0  0
 22 23  1  0  0  0  0
 23 24  2  0  0  0  0
 24 25  1  0  0  0  0
 25 26  2  0  0  0  0
M  END
$$$$

 OpenBabel12191814062D

 27 30  0  0  0  0  0  0  0  0999 V2000
    4.2868   -1.6500    0.0000 C   0  0  0  0  0  0  0  0  0  0  0  0
    3.5724   -1.2375    0.0000 O   0  0  0  0  0  0  0  0  0  0  0  0
    3.5724   -0.4125    0.0000 C   0  0  0  0  0  0  0  0  0  0  0  0
    4.2868    0.0000    0.0000 C   0  0  0  0  0  0  0  0  0  0  0  0
    4.2868    0.8250    0.0000 C   0  0  0  0  0  0  0  0  0  0  0  0
    3.5724    1.2375    0.0000 C   0  0  0  0  0  0  0  0  0  0  0  0
    2.8579    0.8250    0.0000 C   0  0  0  0  0  0  0  0  0  0  0  0
    2.8579   -0.0000    0.0000 C   0  0  0  0  0  0  0  0  0  0  0  0
    2.1434   -0.4125    0.0000 N   0  0  0  0  0  0  0  0  0  0  0  0
    2.1434   -1.2375    0.0000 C   0  0  0  0  0  0  0  0  0  0  0  0
    1.4289   -1.6500    0.0000 C   0  0  0  0  0  0  0  0  0  0  0  0
    1.4289   -2.4750    0.0000 C   0  0  0  0  0  0  0  0  0  0  0  0
    0.7145   -2.8875    0.0000 N   0  0  0  0  0  0  0  0  0  0  0  0
    0.7145   -3.7125    0.0000 C   0  0  0  0  0  0  0  0  0  0  0  0
    0.0000   -4.1250    0.0000 C   0  0  0  0  0  0  0  0  0  0  0  0
   -0.7145   -3.7125    0.0000 N   0  0  0  0  0  0  0  0  0  0  0  0
   -1.4289   -4.1250    0.0000 C   0  0  0  0  0  0  0  0  0  0  0  0
   -0.7145   -2.8875    0.0000 C   0  0  0  0  0  0  0  0  0  0  0  0
    0.0000   -2.4750    0.0000 C   0  0  0  0  0  0  0  0  0  0  0  0
    1.4289   -0.0000    0.0000 C   0  0  0  0  0  0  0  0  0  0  0  0
    0.7145   -0.4125    0.0000 C   0  0  0  0  0  0  0  0  0  0  0  0
   -0.0000    0.0000    0.0000 C   0  0  0  0  0  0  0  0  0  0  0  0
    0.0000    0.8250    0.0000 C   0  0  0  0  0  0  0  0  0  0  0  0
    0.7145    1.2375    0.0000 C   0  0  0  0  0  0  0  0  0  0  0  0
    1.4289    0.8250    0.0000 C   0  0  0  0  0  0  0  0  0  0  0  0
    2.1434    1.2375    0.0000 C   0  0  0  0  0  0  0  0  0  0  0  0
    2.1434    2.0625    0.0000 O   0  0  0  0  0  0  0  0  0  0  0  0
  1  2  1  0  0  0  0
  2  3  1  0  0  0  0
  3  4  2  0  0  0  0
  3  8  1  0  0  0  0
  4  5  1  0  0  0  0
  5  6  2  0  0  0  0
  6  7  1  0  0  0  0
  7  8  2  0  0  0  0
  7 26  1  0  0  0  0
  8  9  1  0  0  0  0
  9 10  1  0  0  0  0
  9 20  1  0  0  0  0
 10 11  1  0  0  0  0
 11 12  1  0  0  0  0
 12 13  1  0  0  0  0
 13 14  1  0  0  0  0
 13 19  1  0  0  0  0
 14 15  1  0  0  0  0
 15 16  1  0  0  0  0
 16 17  1  0  0  0  0
 16 18  1  0  0  0  0
 18 19  1  0  0  0  0
 20 21  2  0  0  0  0
 20 25  1  0  0  0  0
 21 22  1  0  0  0  0
 22 23  2  0  0  0  0
 23 24  1  0  0  0  0
 24 25  2  0  0  0  0
 25 26  1  0  0  0  0
 26 27  2  0  0  0  0
M  END
$$$$

 OpenBabel12191814062D

 29 32  0  0  0  0  0  0  0  0999 V2000
    4.2868   -1.6500    0.0000 C   0  0  0  0  0  0  0  0  0  0  0  0
    3.5724   -1.2375    0.0000 O   0  0  0  0  0  0  0  0  0  0  0  0
    3.5724   -0.4125    0.0000 C   0  0  0  0  0  0  0  0  0  0  0  0
    4.2868    0.0000    0.0000 C   0  0  0  0  0  0  0  0  0  0  0  0
    4.2868    0.8250    0.0000 C   0  0  0  0  0  0  0  0  0  0  0  0
    3.5724    1.2375    0.0000 C   0  0  0  0  0  0  0  0  0  0  0  0
    2.8579    0.8250    0.0000 C   0  0  0  0  0  0  0  0  0  0  0  0
    2.8579   -0.0000    0.0000 C   0  0  0  0  0  0  0  0  0  0  0  0
    2.1434   -0.4125    0.0000 N   0  0  0  0  0  0  0  0  0  0  0  0
    2.1434   -1.2375    0.0000 C   0  0  0  0  0  0  0  0  0  0  0  0
    1.4289   -1.6500    0.0000 C   0  0  0  0  0  0  0  0  0  0  0  0
    1.4289   -2.4750    0.0000 C   0  0  0  0  0  0  0  0  0  0  0  0
    0.7145   -2.8875    0.0000 N   0  0  0  0  0  0  0  0  0  0  0  0
    0.7145   -3.7125    0.0000 C   0  0  0  0  0  0  0  0  0  0  0  0
    0.0000   -4.1250    0.0000 C   0  0  0  0  0  0  0  0  0  0  0  0
   -0.7145   -3.7125    0.0000 N   0  0  0  0  0  0  0  0  0  0  0  0
   -1.4289   -4.1250    0.0000 C   0  0  0  0  0  0  0  0  0  0  0  0
   -2.1434   -3.7125    0.0000 C   0  0  0  0  0  0  0  0  0  0  0  0
   -2.8579   -4.1250    0.0000 O   0  0  0  0  0  0  0  0  0  0  0  0
   -0.7145   -2.8875    0.0000 C   0  0  0  0  0  0  0  0  0  0  0  0
    0.0000   -2.4750    0.0000 C   0  0  0  0  0  0  0  0  0  0  0  0
    1.4289   -0.0000    0.0000 C   0  0  0  0  0  0  0  0  0  0  0  0
    0.7145   -0.4125    0.0000 C   0  0  0  0  0  0  0  0  0  0  0  0
   -0.0000    0.0000    0.0000 C   0  0  0  0  0  0  0  0  0  0  0  0
    0.0000    0.8250    0.0000 C   0  0  0  0  0  0  0  0  0  0  0  0
    0.7145    1.2375    0.0000 C   0  0  0  0  0  0  0  0  0  0  0  0
    1.4289    0.8250    0.0000 C   0  0  0  0  0  0  0  0  0  0  0  0
    2.1434    1.2375    0.0000 C   0  0  0  0  0  0  0  0  0  0  0  0
    2.1434    2.0625    0.0000 O   0  0  0  0  0  0  0  0  0  0  0  0
  1  2  1  0  0  0  0
  2  3  1  0  0  0  0
  3  4  2  0  0  0  0
  3  8  1  0  0  0  0
  4  5  1  0  0  0  0
  5  6  2  0  0  0  0
  6  7  1  0  0  0  0
  7  8  2  0  0  0  0
  7 28  1  0  0  0  0
  8  9  1  0  0  0  0
  9 10  1  0  0  0  0
  9 22  1  0  0  0  0
 10 11  1  0  0  0  0
 11 12  1  0  0  0  0
 12 13  1  0  0  0  0
 13 14  1  0  0  0  0
 13 21  1  0  0  0  0
 14 15  1  0  0  0  0
 15 16  1  0  0  0  0
 16 17  1  0  0  0  0
 16 20  1  0  0  0  0
 17 18  1  0  0  0  0
 18 19  1  0  0  0  0
 20 21  1  0  0  0  0
 22 23  2  0  0  0  0
 22 27  1  0  0  0  0
 23 24  1  0  0  0  0
 24 25  2  0  0  0  0
 25 26  1  0  0  0  0
 26 27  2  0  0  0  0
 27 28  1  0  0  0  0
 28 29  2  0  0  0  0
M  END
$$$$

 OpenBabel12191814062D

 26 29  0  0  0  0  0  0  0  0999 V2000
    4.2868   -1.6500    0.0000 C   0  0  0  0  0  0  0  0  0  0  0  0
    3.5724   -1.2375    0.0000 O   0  0  0  0  0  0  0  0  0  0  0  0
    3.5724   -0.4125    0.0000 C   0  0  0  0  0  0  0  0  0  0  0  0
    4.2868    0.0000    0.0000 C   0  0  0  0  0  0  0  0  0  0  0  0
    4.2868    0.8250    0.0000 C   0  0  0  0  0  0  0  0  0  0  0  0
    3.5724    1.2375    0.0000 C   0  0  0  0  0  0  0  0  0  0  0  0
    2.8579    0.8250    0.0000 C   0  0  0  0  0  0  0  0  0  0  0  0
    2.8579   -0.0000    0.0000 C   0  0  0  0  0  0  0  0  0  0  0  0
    2.1434   -0.4125    0.0000 N   0  0  0  0  0  0  0  0  0  0  0  0
    2.1434   -1.2375    0.0000 C   0  0  0  0  0  0  0  0  0  0  0  0
    1.4289   -1.6500    0.0000 C   0  0  0  0  0  0  0  0  0  0  0  0
    1.4289   -2.4750    0.0000 C   0  0  0  0  0  0  0  0  0  0  0  0
    0.7145   -2.8875    0.0000 N   0  0  0  0  0  0  0  0  0  0  0  0
    0.7145   -3.7125    0.0000 C   0  0  0  0  0  0  0  0  0  0  0  0
    0.0000   -4.1250    0.0000 C   0  0  0  0  0  0  0  0  0  0  0  0
   -0.7145   -3.7125    0.0000 O   0  0  0  0  0  0  0  0  0  0  0  0
   -0.7145   -2.8875    0.0000 C   0  0  0  0  0  0  0  0  0  0  0  0
    0.0000   -2.4750    0.0000 C   0  0  0  0  0  0  0  0  0  0  0  0
    1.4289   -0.0000    0.0000 C   0  0  0  0  0  0  0  0  0  0  0  0
    0.7145   -0.4125    0.0000 C   0  0  0  0  0  0  0  0  0  0  0  0
   -0.0000    0.0000    0.0000 C   0  0  0  0  0  0  0  0  0  0  0  0
    0.0000    0.8250    0.0000 C   0  0  0  0  0  0  0  0  0  0  0  0
    0.7145    1.2375    0.0000 C   0  0  0  0  0  0  0  0  0  0  0  0
    1.4289    0.8250    0.0000 C   0  0  0  0  0  0  0  0  0  0  0  0
    2.1434    1.2375    0.0000 C   0  0  0  0  0  0  0  0  0  0  0  0
    2.1434    2.0625    0.0000 O   0  0  0  0  0  0  0  0  0  0  0  0
  1  2  1  0  0  0  0
  2  3  1  0  0  0  0
  3  4  2  0  0  0  0
  3  8  1  0  0  0  0
  4  5  1  0  0  0  0
  5  6  2  0  0  0  0
  6  7  1  0  0  0  0
  7  8  2  0  0  0  0
  7 25  1  0  0  0  0
  8  9  1  0  0  0  0
  9 10  1  0  0  0  0
  9 19  1  0  0  0  0
 10 11  1  0  0  0  0
 11 12  1  0  0  0  0
 12 13  1  0  0  0  0
 13 14  1  0  0  0  0
 13 18  1  0  0  0  0
 14 15  1  0  0  0  0
 15 16  1  0  0  0  0
 16 17  1  0  0  0  0
 17 18  1  0  0  0  0
 19 20  2  0  0  0  0
 19 24  1  0  0  0  0
 20 21  1  0  0  0  0
 21 22  2  0  0  0  0
 22 23  1  0  0  0  0
 23 24  2  0  0  0  0
 24 25  1  0  0  0  0
 25 26  2  0  0  0  0
M  END
$$$$

 OpenBabel12191814062D

 26 28  0  0  0  0  0  0  0  0999 V2000
    2.1434   -3.7125    0.0000 C   0  0  0  0  0  0  0  0  0  0  0  0
    1.4289   -4.1250    0.0000 O   0  0  0  0  0  0  0  0  0  0  0  0
    1.4289   -4.9500    0.0000 C   0  0  0  0  0  0  0  0  0  0  0  0
    0.7145   -5.3625    0.0000 C   0  0  0  0  0  0  0  0  0  0  0  0
    0.7145   -6.1875    0.0000 C   0  0  0  0  0  0  0  0  0  0  0  0
    1.4289   -6.6000    0.0000 C   0  0  0  0  0  0  0  0  0  0  0  0
    2.1434   -6.1875    0.0000 C   0  0  0  0  0  0  0  0  0  0  0  0
    2.1434   -5.3625    0.0000 C   0  0  0  0  0  0  0  0  0  0  0  0
    2.8579   -4.9500    0.0000 C   0  0  3  0  0  0  0  0  0  0  0  0
    2.8579   -4.1250    0.0000 C   0  0  0  0  0  0  0  0  0  0  0  0
    3.5724   -3.7125    0.0000 C   0  0  0  0  0  0  0  0  0  0  0  0
    4.2868   -4.1250    0.0000 N   0  0  0  0  0  0  0  0  0  0  0  0
    4.2868   -4.9500    0.0000 C   0  0  0  0  0  0  0  0  0  0  0  0
    3.5724   -5.3625    0.0000 C   0  0  0  0  0  0  0  0  0  0  0  0
    3.5724   -6.1875    0.0000 C   0  0  0  0  0  0  0  0  0  0  0  0
    2.8579   -6.6000    0.0000 C   0  0  0  0  0  0  0  0  0  0  0  0
    4.2868   -6.6000    0.0000 O   0  0  0  0  0  0  0  0  0  0  0  0
    5.0013   -3.7125    0.0000 C   0  0  0  0  0  0  0  0  0  0  0  0
    5.7158   -4.1250    0.0000 O   0  0  0  0  0  0  0  0  0  0  0  0
    5.0013   -2.8875    0.0000 O   0  0  0  0  0  0  0  0  0  0  0  0
    5.7158   -2.4750    0.0000 C   0  0  0  0  0  0  0  0  0  0  0  0
    5.7158   -1.6500    0.0000 C   0  0  0  0  0  0  0  0  0  0  0  0
    6.4302   -1.2375    0.0000 C   0  0  0  0  0  0  0  0  0  0  0  0
    7.1447   -1.6500    0.0000 C   0  0  0  0  0  0  0  0  0  0  0  0
    7.1447   -2.4750    0.0000 C   0  0  0  0  0  0  0  0  0  0  0  0
    6.4302   -2.8875    0.0000 C   0  0  0  0  0  0  0  0  0  0  0  0
  1  2  1  0  0  0  0
  2  3  1  0  0  0  0
  3  4  2  0  0  0  0
  3  8  1  0  0  0  0
  4  5  1  0  0  0  0
  5  6  2  0  0  0  0
  6  7  1  0  0  0  0
  7  8  2  0  0  0  0
  8  9  1  0  0  0  0
  9 10  1  0  0  0  0
  9 14  1  0  0  0  0
 10 11  2  0  0  0  0
 11 12  1  0  0  0  0
 12 13  1  0  0  0  0
 12 18  1  0  0  0  0
 13 14  2  0  0  0  0
 14 15  1  0  0  0  0
 15 16  1  0  0  0  0
 15 17  2  0  0  0  0
 18 19  2  0  0  0  0
 18 20  1  0  0  0  0
 20 21  1  0  0  0  0
 21 22  2  0  0  0  0
 21 26  1  0  0  0  0
 22 23  1  0  0  0  0
 23 24  2  0  0  0  0
 24 25  1  0  0  0  0
 25 26  2  0  0  0  0
M  END
$$$$

 OpenBabel12191814062D

 36 40  0  0  0  0  0  0  0  0999 V2000
    3.5724   -2.8875    0.0000 C   0  0  0  0  0  0  0  0  0  0  0  0
    2.8579   -2.4750    0.0000 O   0  0  0  0  0  0  0  0  0  0  0  0
    2.1434   -2.8875    0.0000 C   0  0  0  0  0  0  0  0  0  0  0  0
    2.1434   -3.7125    0.0000 C   0  0  0  0  0  0  0  0  0  0  0  0
    1.4289   -4.1250    0.0000 C   0  0  0  0  0  0  0  0  0  0  0  0
    0.7145   -3.7125    0.0000 C   0  0  0  0  0  0  0  0  0  0  0  0
    0.7145   -2.8875    0.0000 C   0  0  0  0  0  0  0  0  0  0  0  0
    1.4289   -2.4750    0.0000 C   0  0  0  0  0  0  0  0  0  0  0  0
    1.4289   -1.6500    0.0000 C   0  0  0  0  0  0  0  0  0  0  0  0
    0.7145   -1.2375    0.0000 N   0  0  0  0  0  0  0  0  0  0  0  0
    0.7145   -0.4125    0.0000 C   0  0  0  0  0  0  0  0  0  0  0  0
    1.4289    0.0000    0.0000 C   0  0  0  0  0  0  0  0  0  0  0  0
    2.1434   -0.4125    0.0000 C   0  0  0  0  0  0  0  0  0  0  0  0
    2.8579    0.0000    0.0000 C   0  0  0  0  0  0  0  0  0  0  0  0
    3.5724   -0.4125    0.0000 C   0  0  0  0  0  0  0  0  0  0  0  0
    3.5724   -1.2375    0.0000 C   0  0  0  0  0  0  0  0  0  0  0  0
    2.8579   -1.6500    0.0000 C   0  0  0  0  0  0  0  0  0  0  0  0
    2.1434   -1.2375    0.0000 C   0  0  0  0  0  0  0  0  0  0  0  0
    0.0000    0.0000    0.0000 N   0  0  0  0  0  0  0  0  0  0  0  0
   -0.7145   -0.4125    0.0000 C   0  0  0  0  0  0  0  0  0  0  0  0
   -1.4289    0.0000    0.0000 C   0  0  0  0  0  0  0  0  0  0  0  0
   -1.4289    0.8250    0.0000 N   0  0  0  0  0  0  0  0  0  0  0  0
   -2.1434    1.2375    0.0000 C   0  0  0  0  0  0  0  0  0  0  0  0
   -2.8579    0.8250    0.0000 C   0  0  0  0  0  0  0  0  0  0  0  0
   -3.5724    1.2375    0.0000 C   0  0  0  0  0  0  0  0  0  0  0  0
   -4.2868    0.8250    0.0000 C   0  0  0  0  0  0  0  0  0  0  0  0
   -4.2868    0.0000    0.0000 O   0  0  0  0  0  0  0  0  0  0  0  0
   -5.0013    1.2375    0.0000 C   0  0  0  0  0  0  0  0  0  0  0  0
   -5.7158    0.8250    0.0000 C   0  0  0  0  0  0  0  0  0  0  0  0
   -6.4302    1.2375    0.0000 C   0  0  0  0  0  0  0  0  0  0  0  0
   -6.4302    2.0625    0.0000 C   0  0  0  0  0  0  0  0  0  0  0  0
   -7.1447    2.4750    0.0000 F   0  0  0  0  0  0  0  0  0  0  0  0
   -5.7158    2.4750    0.0000 C   0  0  0  0  0  0  0  0  0  0  0  0
   -5.0013    2.0625    0.0000 C   0  0  0  0  0  0  0  0  0  0  0  0
   -0.7145    1.2375    0.0000 C   0  0  0  0  0  0  0  0  0  0  0  0
    0.0000    0.8250    0.0000 C   0  0  0  0  0  0  0  0  0  0  0  0
  1  2  1  0  0  0  0
  2  3  1  0  0  0  0
  3  4  2  0  0  0  0
  3  8  1  0  0  0  0
  4  5  1  0  0  0  0
  5  6  2  0  0  0  0
  6  7  1  0  0  0  0
  7  8  2  0  0  0  0
  8  9  1  0  0  0  0
  9 10  2  0  0  0  0
  9 18  1  0  0  0  0
 10 11  1  0  0  0  0
 11 12  2  0  0  0  0
 11 19  1  0  0  0  0
 12 13  1  0  0  0  0
 13 14  2  0  0  0  0
 13 18  1  0  0  0  0
 14 15  1  0  0  0  0
 15 16  2  0  0  0  0
 16 17  1  0  0  0  0
 17 18  2  0  0  0  0
 19 20  1  0  0  0  0
 19 36  1  0  0  0  0
 20 21  1  0  0  0  0
 21 22  1  0  0  0  0
 22 23  1  0  0  0  0
 22 35  1  0  0  0  0
 23 24  1  0  0  0  0
 24 25  1  0  0  0  0
 25 26  1  0  0  0  0
 26 27  2  0  0  0  0
 26 28  1  0  0  0  0
 28 29  2  0  0  0  0
 28 34  1  0  0  0  0
 29 30  1  0  0  0  0
 30 31  2  0  0  0  0
 31 32  1  0  0  0  0
 31 33  1  0  0  0  0
 33 34  2  0  0  0  0
 35 36  1  0  0  0  0
M  END
$$$$

 OpenBabel12191814062D

 34 38  0  0  0  0  0  0  0  0999 V2000
   -4.2962   -2.1269    0.0000 C   0  0  0  0  0  0  0  0  0  0  0  0
   -3.8837   -1.4124    0.0000 O   0  0  0  0  0  0  0  0  0  0  0  0
   -4.2962   -0.6979    0.0000 C   0  0  0  0  0  0  0  0  0  0  0  0
   -5.1212   -0.6979    0.0000 C   0  0  0  0  0  0  0  0  0  0  0  0
   -5.5337    0.0165    0.0000 C   0  0  0  0  0  0  0  0  0  0  0  0
   -5.1212    0.7310    0.0000 C   0  0  0  0  0  0  0  0  0  0  0  0
   -4.2962    0.7310    0.0000 C   0  0  0  0  0  0  0  0  0  0  0  0
   -3.8837    0.0165    0.0000 C   0  0  0  0  0  0  0  0  0  0  0  0
   -3.0587    0.0165    0.0000 N   0  0  0  0  0  0  0  0  0  0  0  0
   -2.6462    0.7310    0.0000 C   0  0  0  0  0  0  0  0  0  0  0  0
   -1.8212    0.7310    0.0000 C   0  0  0  0  0  0  0  0  0  0  0  0
   -1.4087    0.0165    0.0000 N   0  0  0  0  0  0  0  0  0  0  0  0
   -0.5837    0.0165    0.0000 C   0  0  0  0  0  0  0  0  0  0  0  0
   -0.1712   -0.6979    0.0000 C   0  0  0  0  0  0  0  0  0  0  0  0
   -0.5837   -1.4124    0.0000 O   0  0  0  0  0  0  0  0  0  0  0  0
    0.6538   -0.6979    0.0000 C   0  0  0  0  0  0  0  0  0  0  0  0
    1.1387   -0.0305    0.0000 O   0  0  0  0  0  0  0  0  0  0  0  0
    1.9233   -0.2854    0.0000 C   0  0  0  0  0  0  0  0  0  0  0  0
    2.6378    0.1271    0.0000 C   0  0  0  0  0  0  0  0  0  0  0  0
    3.3523   -0.2854    0.0000 C   0  0  0  0  0  0  0  0  0  0  0  0
    3.3523   -1.1104    0.0000 C   0  0  0  0  0  0  0  0  0  0  0  0
    2.6378   -1.5229    0.0000 C   0  0  0  0  0  0  0  0  0  0  0  0
    1.9233   -1.1104    0.0000 C   0  0  0  0  0  0  0  0  0  0  0  0
    1.1387   -1.3654    0.0000 C   0  0  0  0  0  0  0  0  0  0  0  0
    0.8838   -2.1500    0.0000 C   0  0  0  0  0  0  0  0  0  0  0  0
    1.4358   -2.7631    0.0000 C   0  0  0  0  0  0  0  0  0  0  0  0
    1.1809   -3.5477    0.0000 C   0  0  0  0  0  0  0  0  0  0  0  0
    1.7329   -4.1608    0.0000 C   0  0  0  0  0  0  0  0  0  0  0  0
    1.4780   -4.9454    0.0000 C   0  0  0  0  0  0  0  0  0  0  0  0
    0.6710   -5.1170    0.0000 C   0  0  0  0  0  0  0  0  0  0  0  0
    0.1190   -4.5039    0.0000 C   0  0  0  0  0  0  0  0  0  0  0  0
    0.3739   -3.7192    0.0000 C   0  0  0  0  0  0  0  0  0  0  0  0
   -1.8212   -0.6979    0.0000 C   0  0  0  0  0  0  0  0  0  0  0  0
   -2.6462   -0.6979    0.0000 C   0  0  0  0  0  0  0  0  0  0  0  0
  1  2  1  0  0  0  0
  2  3  1  0  0  0  0
  3  4  2  0  0  0  0
  3  8  1  0  0  0  0
  4  5  1  0  0  0  0
  5  6  2  0  0  0  0
  6  7  1  0  0  0  0
  7  8  2  0  0  0  0
  8  9  1  0  0  0  0
  9 10  1  0  0  0  0
  9 34  1  0  0  0  0
 10 11  1  0  0  0  0
 11 12  1  0  0  0  0
 12 13  1  0  0  0  0
 12 33  1  0  0  0  0
 13 14  1  0  0  0  0
 14 15  2  0  0  0  0
 14 16  1  0  0  0  0
 16 17  1  0  0  0  0
 16 24  2  0  0  0  0
 17 18  1  0  0  0  0
 18 19  2  0  0  0  0
 18 23  1  0  0  0  0
 19 20  1  0  0  0  0
 20 21  2  0  0  0  0
 21 22  1  0  0  0  0
 22 23  2  0  0  0  0
 23 24  1  0  0  0  0
 24 25  1  0  0  0  0
 25 26  1  0  0  0  0
 26 27  1  0  0  0  0
 27 28  2  0  0  0  0
 27 32  1  0  0  0  0
 28 29  1  0  0  0  0
 29 30  2  0  0  0  0
 30 31  1  0  0  0  0
 31 32  2  0  0  0  0
 33 34  1  0  0  0  0
M  END
$$$$

 OpenBabel12191814062D

 34 38  0  0  0  0  0  0  0  0999 V2000
   -4.2962   -2.1269    0.0000 C   0  0  0  0  0  0  0  0  0  0  0  0
   -3.8837   -1.4124    0.0000 O   0  0  0  0  0  0  0  0  0  0  0  0
   -4.2962   -0.6979    0.0000 C   0  0  0  0  0  0  0  0  0  0  0  0
   -5.1212   -0.6979    0.0000 C   0  0  0  0  0  0  0  0  0  0  0  0
   -5.5337    0.0165    0.0000 C   0  0  0  0  0  0  0  0  0  0  0  0
   -5.1212    0.7310    0.0000 C   0  0  0  0  0  0  0  0  0  0  0  0
   -4.2962    0.7310    0.0000 C   0  0  0  0  0  0  0  0  0  0  0  0
   -3.8837    0.0165    0.0000 C   0  0  0  0  0  0  0  0  0  0  0  0
   -3.0587    0.0165    0.0000 N   0  0  0  0  0  0  0  0  0  0  0  0
   -2.6462    0.7310    0.0000 C   0  0  0  0  0  0  0  0  0  0  0  0
   -1.8212    0.7310    0.0000 C   0  0  0  0  0  0  0  0  0  0  0  0
   -1.4087    0.0165    0.0000 N   0  0  0  0  0  0  0  0  0  0  0  0
   -0.5837    0.0165    0.0000 C   0  0  0  0  0  0  0  0  0  0  0  0
   -0.1712   -0.6979    0.0000 C   0  0  3  0  0  0  0  0  0  0  0  0
   -0.5837   -1.4124    0.0000 O   0  0  0  0  0  0  0  0  0  0  0  0
    0.6538   -0.6979    0.0000 C   0  0  0  0  0  0  0  0  0  0  0  0
    1.1387   -0.0305    0.0000 O   0  0  0  0  0  0  0  0  0  0  0  0
    1.9233   -0.2854    0.0000 C   0  0  0  0  0  0  0  0  0  0  0  0
    2.6378    0.1271    0.0000 C   0  0  0  0  0  0  0  0  0  0  0  0
    3.3523   -0.2854    0.0000 C   0  0  0  0  0  0  0  0  0  0  0  0
    3.3523   -1.1104    0.0000 C   0  0  0  0  0  0  0  0  0  0  0  0
    2.6378   -1.5229    0.0000 C   0  0  0  0  0  0  0  0  0  0  0  0
    1.9233   -1.1104    0.0000 C   0  0  0  0  0  0  0  0  0  0  0  0
    1.1387   -1.3654    0.0000 C   0  0  0  0  0  0  0  0  0  0  0  0
    0.8838   -2.1500    0.0000 C   0  0  0  0  0  0  0  0  0  0  0  0
    1.4358   -2.7631    0.0000 C   0  0  0  0  0  0  0  0  0  0  0  0
    1.1809   -3.5477    0.0000 C   0  0  0  0  0  0  0  0  0  0  0  0
    1.7329   -4.1608    0.0000 C   0  0  0  0  0  0  0  0  0  0  0  0
    1.4780   -4.9454    0.0000 C   0  0  0  0  0  0  0  0  0  0  0  0
    0.6710   -5.1170    0.0000 C   0  0  0  0  0  0  0  0  0  0  0  0
    0.1190   -4.5039    0.0000 C   0  0  0  0  0  0  0  0  0  0  0  0
    0.3739   -3.7192    0.0000 C   0  0  0  0  0  0  0  0  0  0  0  0
   -1.8212   -0.6979    0.0000 C   0  0  0  0  0  0  0  0  0  0  0  0
   -2.6462   -0.6979    0.0000 C   0  0  0  0  0  0  0  0  0  0  0  0
  1  2  1  0  0  0  0
  2  3  1  0  0  0  0
  3  4  2  0  0  0  0
  3  8  1  0  0  0  0
  4  5  1  0  0  0  0
  5  6  2  0  0  0  0
  6  7  1  0  0  0  0
  7  8  2  0  0  0  0
  8  9  1  0  0  0  0
  9 10  1  0  0  0  0
  9 34  1  0  0  0  0
 10 11  1  0  0  0  0
 11 12  1  0  0  0  0
 12 13  1  0  0  0  0
 12 33  1  0  0  0  0
 13 14  1  0  0  0  0
 14 15  1  0  0  0  0
 14 16  1  0  0  0  0
 16 17  1  0  0  0  0
 16 24  2  0  0  0  0
 17 18  1  0  0  0  0
 18 19  2  0  0  0  0
 18 23  1  0  0  0  0
 19 20  1  0  0  0  0
 20 21  2  0  0  0  0
 21 22  1  0  0  0  0
 22 23  2  0  0  0  0
 23 24  1  0  0  0  0
 24 25  1  0  0  0  0
 25 26  1  0  0  0  0
 26 27  1  0  0  0  0
 27 28  2  0  0  0  0
 27 32  1  0  0  0  0
 28 29  1  0  0  0  0
 29 30  2  0  0  0  0
 30 31  1  0  0  0  0
 31 32  2  0  0  0  0
 33 34  1  0  0  0  0
M  END
$$$$

 OpenBabel12191814062D

 31 33  0  0  0  0  0  0  0  0999 V2000
   -3.5724   -2.8875    0.0000 C   0  0  0  0  0  0  0  0  0  0  0  0
   -2.8579   -2.4750    0.0000 O   0  0  0  0  0  0  0  0  0  0  0  0
   -2.8579   -1.6500    0.0000 C   0  0  0  0  0  0  0  0  0  0  0  0
   -3.5724   -1.2375    0.0000 C   0  0  0  0  0  0  0  0  0  0  0  0
   -3.5724   -0.4125    0.0000 C   0  0  0  0  0  0  0  0  0  0  0  0
   -2.8579    0.0000    0.0000 C   0  0  0  0  0  0  0  0  0  0  0  0
   -2.1434   -0.4125    0.0000 C   0  0  0  0  0  0  0  0  0  0  0  0
   -2.1434   -1.2375    0.0000 C   0  0  0  0  0  0  0  0  0  0  0  0
   -1.4289   -1.6500    0.0000 N   0  0  0  0  0  0  0  0  0  0  0  0
   -0.7145   -1.2375    0.0000 C   0  0  0  0  0  0  0  0  0  0  0  0
    0.0000   -1.6500    0.0000 C   0  0  0  0  0  0  0  0  0  0  0  0
    0.0000   -2.4750    0.0000 N   0  0  0  0  0  0  0  0  0  0  0  0
    0.7145   -2.8875    0.0000 C   0  0  0  0  0  0  0  0  0  0  0  0
    1.4289   -2.4750    0.0000 C   0  0  3  0  0  0  0  0  0  0  0  0
    1.4289   -1.6500    0.0000 O   0  0  0  0  0  0  0  0  0  0  0  0
    2.1434   -2.8875    0.0000 C   0  0  0  0  0  0  0  0  0  0  0  0
    2.8579   -2.4750    0.0000 O   0  0  0  0  0  0  0  0  0  0  0  0
    3.5724   -2.8875    0.0000 C   0  0  0  0  0  0  0  0  0  0  0  0
    4.2868   -2.4750    0.0000 C   0  0  0  0  0  0  0  0  0  0  0  0
    5.0013   -2.8875    0.0000 C   0  0  0  0  0  0  0  0  0  0  0  0
    5.7158   -2.4750    0.0000 O   0  0  0  0  0  0  0  0  0  0  0  0
    6.4302   -2.8875    0.0000 C   0  0  0  0  0  0  0  0  0  0  0  0
    5.0013   -3.7125    0.0000 C   0  0  0  0  0  0  0  0  0  0  0  0
    5.7158   -4.1250    0.0000 O   0  0  0  0  0  0  0  0  0  0  0  0
    6.4302   -3.7125    0.0000 C   0  0  0  0  0  0  0  0  0  0  0  0
    4.2868   -4.1250    0.0000 C   0  0  0  0  0  0  0  0  0  0  0  0
    4.2868   -4.9500    0.0000 O   0  0  0  0  0  0  0  0  0  0  0  0
    3.5724   -5.3625    0.0000 C   0  0  0  0  0  0  0  0  0  0  0  0
    3.5724   -3.7125    0.0000 C   0  0  0  0  0  0  0  0  0  0  0  0
   -0.7145   -2.8875    0.0000 C   0  0  0  0  0  0  0  0  0  0  0  0
   -1.4289   -2.4750    0.0000 C   0  0  0  0  0  0  0  0  0  0  0  0
  1  2  1  0  0  0  0
  2  3  1  0  0  0  0
  3  4  2  0  0  0  0
  3  8  1  0  0  0  0
  4  5  1  0  0  0  0
  5  6  2  0  0  0  0
  6  7  1  0  0  0  0
  7  8  2  0  0  0  0
  8  9  1  0  0  0  0
  9 10  1  0  0  0  0
  9 31  1  0  0  0  0
 10 11  1  0  0  0  0
 11 12  1  0  0  0  0
 12 13  1  0  0  0  0
 12 30  1  0  0  0  0
 13 14  1  0  0  0  0
 14 15  1  0  0  0  0
 14 16  1  0  0  0  0
 16 17  1  0  0  0  0
 17 18  1  0  0  0  0
 18 19  2  0  0  0  0
 18 29  1  0  0  0  0
 19 20  1  0  0  0  0
 20 21  1  0  0  0  0
 20 23  2  0  0  0  0
 21 22  1  0  0  0  0
 23 24  1  0  0  0  0
 23 26  1  0  0  0  0
 24 25  1  0  0  0  0
 26 27  1  0  0  0  0
 26 29  2  0  0  0  0
 27 28  1  0  0  0  0
 30 31  1  0  0  0  0
M  END
$$$$

 OpenBabel12191814062D

 30 33  0  0  0  0  0  0  0  0999 V2000
    6.9246    8.1229    0.0000 C   0  0  0  0  0  0  0  0  0  0  0  0
    6.9246    7.2979    0.0000 O   0  0  0  0  0  0  0  0  0  0  0  0
    7.6391    6.8854    0.0000 C   0  0  0  0  0  0  0  0  0  0  0  0
    8.3536    7.2979    0.0000 C   0  0  0  0  0  0  0  0  0  0  0  0
    9.0681    6.8854    0.0000 C   0  0  0  0  0  0  0  0  0  0  0  0
    9.0681    6.0604    0.0000 C   0  0  0  0  0  0  0  0  0  0  0  0
    8.3536    5.6479    0.0000 C   0  0  0  0  0  0  0  0  0  0  0  0
    7.6391    6.0604    0.0000 C   0  0  0  0  0  0  0  0  0  0  0  0
    6.9246    5.6479    0.0000 N   0  0  0  0  0  0  0  0  0  0  0  0
    6.9246    4.8229    0.0000 C   0  0  0  0  0  0  0  0  0  0  0  0
    6.2102    4.4104    0.0000 C   0  0  0  0  0  0  0  0  0  0  0  0
    5.4957    4.8229    0.0000 N   0  0  0  0  0  0  0  0  0  0  0  0
    4.7812    4.4104    0.0000 C   0  0  0  0  0  0  0  0  0  0  0  0
    4.7812    3.5854    0.0000 C   0  0  3  0  0  0  0  0  0  0  0  0
    5.4957    3.1729    0.0000 O   0  0  0  0  0  0  0  0  0  0  0  0
    4.0668    3.1729    0.0000 C   0  0  0  0  0  0  0  0  0  0  0  0
    4.0668    2.3479    0.0000 O   0  0  0  0  0  0  0  0  0  0  0  0
    3.3523    1.9354    0.0000 C   0  0  0  0  0  0  0  0  0  0  0  0
    3.3523    1.1104    0.0000 C   0  0  0  0  0  0  0  0  0  0  0  0
    2.6378    0.6979    0.0000 C   0  0  0  0  0  0  0  0  0  0  0  0
    1.9233    1.1104    0.0000 C   0  0  0  0  0  0  0  0  0  0  0  0
    1.1387    0.8555    0.0000 N   0  0  0  0  0  0  0  0  0  0  0  0
    0.8838    0.0709    0.0000 C   0  0  0  0  0  0  0  0  0  0  0  0
    0.6538    1.5229    0.0000 C   0  0  0  0  0  0  0  0  0  0  0  0
   -0.1712    1.5229    0.0000 O   0  0  0  0  0  0  0  0  0  0  0  0
    1.1387    2.1904    0.0000 C   0  0  0  0  0  0  0  0  0  0  0  0
    1.9233    1.9354    0.0000 C   0  0  0  0  0  0  0  0  0  0  0  0
    2.6378    2.3479    0.0000 C   0  0  0  0  0  0  0  0  0  0  0  0
    5.4957    5.6479    0.0000 C   0  0  0  0  0  0  0  0  0  0  0  0
    6.2102    6.0604    0.0000 C   0  0  0  0  0  0  0  0  0  0  0  0
  1  2  1  0  0  0  0
  2  3  1  0  0  0  0
  3  4  2  0  0  0  0
  3  8  1  0  0  0  0
  4  5  1  0  0  0  0
  5  6  2  0  0  0  0
  6  7  1  0  0  0  0
  7  8  2  0  0  0  0
  8  9  1  0  0  0  0
  9 10  1  0  0  0  0
  9 30  1  0  0  0  0
 10 11  1  0  0  0  0
 11 12  1  0  0  0  0
 12 13  1  0  0  0  0
 12 29  1  0  0  0  0
 13 14  1  0  0  0  0
 14 15  1  0  0  0  0
 14 16  1  0  0  0  0
 16 17  1  0  0  0  0
 17 18  1  0  0  0  0
 18 19  2  0  0  0  0
 18 28  1  0  0  0  0
 19 20  1  0  0  0  0
 20 21  2  0  0  0  0
 21 22  1  0  0  0  0
 21 27  1  0  0  0  0
 22 23  1  0  0  0  0
 22 24  1  0  0  0  0
 24 25  2  0  0  0  0
 24 26  1  0  0  0  0
 26 27  1  0  0  0  0
 27 28  2  0  0  0  0
 29 30  1  0  0  0  0
M  END
$$$$

 OpenBabel12191814062D

 30 33  0  0  0  0  0  0  0  0999 V2000
   -2.8579   -7.4250    0.0000 C   0  0  0  0  0  0  0  0  0  0  0  0
   -2.8579   -6.6000    0.0000 O   0  0  0  0  0  0  0  0  0  0  0  0
   -3.5724   -6.1875    0.0000 C   0  0  0  0  0  0  0  0  0  0  0  0
   -4.2868   -6.6000    0.0000 C   0  0  0  0  0  0  0  0  0  0  0  0
   -5.0013   -6.1875    0.0000 C   0  0  0  0  0  0  0  0  0  0  0  0
   -5.0013   -5.3625    0.0000 C   0  0  0  0  0  0  0  0  0  0  0  0
   -4.2868   -4.9500    0.0000 C   0  0  0  0  0  0  0  0  0  0  0  0
   -3.5724   -5.3625    0.0000 C   0  0  0  0  0  0  0  0  0  0  0  0
   -2.8579   -4.9500    0.0000 N   0  0  0  0  0  0  0  0  0  0  0  0
   -2.8579   -4.1250    0.0000 C   0  0  0  0  0  0  0  0  0  0  0  0
   -2.1434   -3.7125    0.0000 C   0  0  0  0  0  0  0  0  0  0  0  0
   -1.4289   -4.1250    0.0000 N   0  0  0  0  0  0  0  0  0  0  0  0
   -0.7145   -3.7125    0.0000 C   0  0  0  0  0  0  0  0  0  0  0  0
   -0.7145   -2.8875    0.0000 C   0  0  3  0  0  0  0  0  0  0  0  0
   -1.4289   -2.4750    0.0000 O   0  0  0  0  0  0  0  0  0  0  0  0
    0.0000   -2.4750    0.0000 C   0  0  0  0  0  0  0  0  0  0  0  0
    0.0000   -1.6500    0.0000 O   0  0  0  0  0  0  0  0  0  0  0  0
    0.7145   -1.2375    0.0000 C   0  0  0  0  0  0  0  0  0  0  0  0
    0.7145   -0.4125    0.0000 C   0  0  0  0  0  0  0  0  0  0  0  0
    1.4289    0.0000    0.0000 C   0  0  0  0  0  0  0  0  0  0  0  0
    2.1434   -0.4125    0.0000 C   0  0  0  0  0  0  0  0  0  0  0  0
    2.8579    0.0000    0.0000 N   0  0  0  0  0  0  0  0  0  0  0  0
    3.5724   -0.4125    0.0000 C   0  0  0  0  0  0  0  0  0  0  0  0
    4.2868   -0.0000    0.0000 O   0  0  0  0  0  0  0  0  0  0  0  0
    3.5724   -1.2375    0.0000 C   0  0  0  0  0  0  0  0  0  0  0  0
    2.8579   -1.6500    0.0000 C   0  0  0  0  0  0  0  0  0  0  0  0
    2.1434   -1.2375    0.0000 C   0  0  0  0  0  0  0  0  0  0  0  0
    1.4289   -1.6500    0.0000 C   0  0  0  0  0  0  0  0  0  0  0  0
   -1.4289   -4.9500    0.0000 C   0  0  0  0  0  0  0  0  0  0  0  0
   -2.1434   -5.3625    0.0000 C   0  0  0  0  0  0  0  0  0  0  0  0
  1  2  1  0  0  0  0
  2  3  1  0  0  0  0
  3  4  2  0  0  0  0
  3  8  1  0  0  0  0
  4  5  1  0  0  0  0
  5  6  2  0  0  0  0
  6  7  1  0  0  0  0
  7  8  2  0  0  0  0
  8  9  1  0  0  0  0
  9 10  1  0  0  0  0
  9 30  1  0  0  0  0
 10 11  1  0  0  0  0
 11 12  1  0  0  0  0
 12 13  1  0  0  0  0
 12 29  1  0  0  0  0
 13 14  1  0  0  0  0
 14 15  1  0  0  0  0
 14 16  1  0  0  0  0
 16 17  1  0  0  0  0
 17 18  1  0  0  0  0
 18 19  2  0  0  0  0
 18 28  1  0  0  0  0
 19 20  1  0  0  0  0
 20 21  2  0  0  0  0
 21 22  1  0  0  0  0
 21 27  1  0  0  0  0
 22 23  1  0  0  0  0
 23 24  2  0  0  0  0
 23 25  1  0  0  0  0
 25 26  1  0  0  0  0
 26 27  1  0  0  0  0
 27 28  2  0  0  0  0
 29 30  1  0  0  0  0
M  END
$$$$

 OpenBabel12191814062D

 29 32  0  0  0  0  0  0  0  0999 V2000
   -4.2868   -1.6500    0.0000 C   0  0  0  0  0  0  0  0  0  0  0  0
   -3.5724   -1.2375    0.0000 O   0  0  0  0  0  0  0  0  0  0  0  0
   -3.5724   -0.4125    0.0000 C   0  0  0  0  0  0  0  0  0  0  0  0
   -4.2868    0.0000    0.0000 C   0  0  0  0  0  0  0  0  0  0  0  0
   -4.2868    0.8250    0.0000 C   0  0  0  0  0  0  0  0  0  0  0  0
   -3.5724    1.2375    0.0000 C   0  0  0  0  0  0  0  0  0  0  0  0
   -2.8579    0.8250    0.0000 C   0  0  0  0  0  0  0  0  0  0  0  0
   -2.8579   -0.0000    0.0000 C   0  0  0  0  0  0  0  0  0  0  0  0
   -2.1434   -0.4125    0.0000 N   0  0  0  0  0  0  0  0  0  0  0  0
   -1.4289    0.0000    0.0000 C   0  0  0  0  0  0  0  0  0  0  0  0
   -0.7145   -0.4125    0.0000 C   0  0  0  0  0  0  0  0  0  0  0  0
   -0.7145   -1.2375    0.0000 N   0  0  0  0  0  0  0  0  0  0  0  0
    0.0000   -1.6500    0.0000 C   0  0  0  0  0  0  0  0  0  0  0  0
    0.0000   -2.4750    0.0000 C   0  0  3  0  0  0  0  0  0  0  0  0
   -0.7145   -2.8875    0.0000 O   0  0  0  0  0  0  0  0  0  0  0  0
    0.7145   -2.8875    0.0000 C   0  0  0  0  0  0  0  0  0  0  0  0
    1.4289   -2.4750    0.0000 O   0  0  0  0  0  0  0  0  0  0  0  0
    1.4289   -1.6500    0.0000 C   0  0  0  0  0  0  0  0  0  0  0  0
    0.7145   -1.2375    0.0000 C   0  0  0  0  0  0  0  0  0  0  0  0
    0.7145   -0.4125    0.0000 C   0  0  0  0  0  0  0  0  0  0  0  0
    1.4289    0.0000    0.0000 C   0  0  0  0  0  0  0  0  0  0  0  0
    2.1434   -0.4125    0.0000 C   0  0  0  0  0  0  0  0  0  0  0  0
    2.8579    0.0000    0.0000 C   0  0  0  0  0  0  0  0  0  0  0  0
    3.5724   -0.4125    0.0000 C   0  0  0  0  0  0  0  0  0  0  0  0
    3.5724   -1.2375    0.0000 C   0  0  0  0  0  0  0  0  0  0  0  0
    2.8579   -1.6500    0.0000 C   0  0  0  0  0  0  0  0  0  0  0  0
    2.1434   -1.2375    0.0000 C   0  0  0  0  0  0  0  0  0  0  0  0
   -1.4289   -1.6500    0.0000 C   0  0  0  0  0  0  0  0  0  0  0  0
   -2.1434   -1.2375    0.0000 C   0  0  0  0  0  0  0  0  0  0  0  0
  1  2  1  0  0  0  0
  2  3  1  0  0  0  0
  3  4  2  0  0  0  0
  3  8  1  0  0  0  0
  4  5  1  0  0  0  0
  5  6  2  0  0  0  0
  6  7  1  0  0  0  0
  7  8  2  0  0  0  0
  8  9  1  0  0  0  0
  9 10  1  0  0  0  0
  9 29  1  0  0  0  0
 10 11  1  0  0  0  0
 11 12  1  0  0  0  0
 12 13  1  0  0  0  0
 12 28  1  0  0  0  0
 13 14  1  0  0  0  0
 14 15  1  0  0  0  0
 14 16  1  0  0  0  0
 16 17  1  0  0  0  0
 17 18  1  0  0  0  0
 18 19  2  0  0  0  0
 18 27  1  0  0  0  0
 19 20  1  0  0  0  0
 20 21  2  0  0  0  0
 21 22  1  0  0  0  0
 22 23  2  0  0  0  0
 22 27  1  0  0  0  0
 23 24  1  0  0  0  0
 24 25  2  0  0  0  0
 25 26  1  0  0  0  0
 26 27  2  0  0  0  0
 28 29  1  0  0  0  0
M  END
$$$$

 OpenBabel12191814062D

 35 38  0  0  0  0  0  0  0  0999 V2000
    4.2868   -4.9500    0.0000 C   0  0  0  0  0  0  0  0  0  0  0  0
    3.5724   -5.3625    0.0000 O   0  0  0  0  0  0  0  0  0  0  0  0
    3.5724   -6.1875    0.0000 C   0  0  0  0  0  0  0  0  0  0  0  0
    4.2868   -6.6000    0.0000 C   0  0  0  0  0  0  0  0  0  0  0  0
    4.2868   -7.4250    0.0000 C   0  0  0  0  0  0  0  0  0  0  0  0
    3.5724   -7.8375    0.0000 C   0  0  0  0  0  0  0  0  0  0  0  0
    2.8579   -7.4250    0.0000 C   0  0  0  0  0  0  0  0  0  0  0  0
    2.8579   -6.6000    0.0000 C   0  0  0  0  0  0  0  0  0  0  0  0
    2.1434   -6.1875    0.0000 N   0  0  0  0  0  0  0  0  0  0  0  0
    1.4289   -6.6000    0.0000 C   0  0  0  0  0  0  0  0  0  0  0  0
    0.7145   -6.1875    0.0000 C   0  0  0  0  0  0  0  0  0  0  0  0
    0.7145   -5.3625    0.0000 N   0  0  0  0  0  0  0  0  0  0  0  0
    0.0000   -4.9500    0.0000 C   0  0  0  0  0  0  0  0  0  0  0  0
    0.0000   -4.1250    0.0000 C   0  0  3  0  0  0  0  0  0  0  0  0
    0.7145   -3.7125    0.0000 O   0  0  0  0  0  0  0  0  0  0  0  0
   -0.7145   -3.7125    0.0000 C   0  0  0  0  0  0  0  0  0  0  0  0
   -0.7145   -2.8875    0.0000 O   0  0  0  0  0  0  0  0  0  0  0  0
   -1.4289   -2.4750    0.0000 C   0  0  0  0  0  0  0  0  0  0  0  0
   -2.1434   -2.8875    0.0000 C   0  0  0  0  0  0  0  0  0  0  0  0
   -2.8579   -2.4750    0.0000 C   0  0  0  0  0  0  0  0  0  0  0  0
   -2.8579   -1.6500    0.0000 C   0  0  0  0  0  0  0  0  0  0  0  0
   -2.1434   -1.2375    0.0000 C   0  0  0  0  0  0  0  0  0  0  0  0
   -1.4289   -1.6500    0.0000 C   0  0  0  0  0  0  0  0  0  0  0  0
   -0.7145   -1.2375    0.0000 C   0  0  0  0  0  0  0  0  0  0  0  0
   -0.7145   -0.4125    0.0000 O   0  0  0  0  0  0  0  0  0  0  0  0
    0.0000   -1.6500    0.0000 C   0  0  0  0  0  0  0  0  0  0  0  0
    0.7145   -1.2375    0.0000 C   0  0  0  0  0  0  0  0  0  0  0  0
    0.7145   -0.4125    0.0000 C   0  0  0  0  0  0  0  0  0  0  0  0
    0.0000    0.0000    0.0000 C   0  0  0  0  0  0  0  0  0  0  0  0
    0.0000    0.8250    0.0000 C   0  0  0  0  0  0  0  0  0  0  0  0
    0.7145    1.2375    0.0000 C   0  0  0  0  0  0  0  0  0  0  0  0
    1.4289    0.8250    0.0000 C   0  0  0  0  0  0  0  0  0  0  0  0
    1.4289    0.0000    0.0000 C   0  0  0  0  0  0  0  0  0  0  0  0
    1.4289   -4.9500    0.0000 C   0  0  0  0  0  0  0  0  0  0  0  0
    2.1434   -5.3625    0.0000 C   0  0  0  0  0  0  0  0  0  0  0  0
  1  2  1  0  0  0  0
  2  3  1  0  0  0  0
  3  4  2  0  0  0  0
  3  8  1  0  0  0  0
  4  5  1  0  0  0  0
  5  6  2  0  0  0  0
  6  7  1  0  0  0  0
  7  8  2  0  0  0  0
  8  9  1  0  0  0  0
  9 10  1  0  0  0  0
  9 35  1  0  0  0  0
 10 11  1  0  0  0  0
 11 12  1  0  0  0  0
 12 13  1  0  0  0  0
 12 34  1  0  0  0  0
 13 14  1  0  0  0  0
 14 15  1  0  0  0  0
 14 16  1  0  0  0  0
 16 17  1  0  0  0  0
 17 18  1  0  0  0  0
 18 19  2  0  0  0  0
 18 23  1  0  0  0  0
 19 20  1  0  0  0  0
 20 21  2  0  0  0  0
 21 22  1  0  0  0  0
 22 23  2  0  0  0  0
 23 24  1  0  0  0  0
 24 25  2  0  0  0  0
 24 26  1  0  0  0  0
 26 27  1  0  0  0  0
 27 28  1  0  0  0  0
 28 29  2  0  0  0  0
 28 33  1  0  0  0  0
 29 30  1  0  0  0  0
 30 31  2  0  0  0  0
 31 32  1  0  0  0  0
 32 33  2  0  0  0  0
 34 35  1  0  0  0  0
M  END
$$$$

 OpenBabel12191814062D

 28 32  0  0  0  0  0  0  0  0999 V2000
    0.9681   -6.5147    0.0000 C   0  0  0  0  0  0  0  0  0  0  0  0
    0.4161   -5.9016    0.0000 O   0  0  0  0  0  0  0  0  0  0  0  0
   -0.3909   -6.0731    0.0000 C   0  0  0  0  0  0  0  0  0  0  0  0
   -0.6459   -6.8577    0.0000 C   0  0  0  0  0  0  0  0  0  0  0  0
   -1.4528   -7.0293    0.0000 C   0  0  0  0  0  0  0  0  0  0  0  0
   -2.0049   -6.4162    0.0000 C   0  0  0  0  0  0  0  0  0  0  0  0
   -1.7499   -5.6315    0.0000 C   0  0  0  0  0  0  0  0  0  0  0  0
   -0.9429   -5.4600    0.0000 C   0  0  0  0  0  0  0  0  0  0  0  0
   -0.6880   -4.6754    0.0000 N   0  0  0  0  0  0  0  0  0  0  0  0
   -1.2400   -4.0623    0.0000 C   0  0  0  0  0  0  0  0  0  0  0  0
   -0.9851   -3.2777    0.0000 C   0  0  0  0  0  0  0  0  0  0  0  0
   -0.1781   -3.1062    0.0000 N   0  0  0  0  0  0  0  0  0  0  0  0
    0.0768   -2.3215    0.0000 C   0  0  0  0  0  0  0  0  0  0  0  0
    0.8838   -2.1500    0.0000 C   0  0  0  0  0  0  0  0  0  0  0  0
    1.1387   -1.3654    0.0000 C   0  0  0  0  0  0  0  0  0  0  0  0
    0.6538   -0.6979    0.0000 C   0  0  0  0  0  0  0  0  0  0  0  0
    1.1387   -0.0305    0.0000 N   0  0  0  0  0  0  0  0  0  0  0  0
    1.9233   -0.2854    0.0000 C   0  0  0  0  0  0  0  0  0  0  0  0
    2.6378    0.1271    0.0000 C   0  0  0  0  0  0  0  0  0  0  0  0
    3.3523   -0.2854    0.0000 C   0  0  0  0  0  0  0  0  0  0  0  0
    4.1369   -0.0305    0.0000 O   0  0  0  0  0  0  0  0  0  0  0  0
    4.6218   -0.6979    0.0000 C   0  0  0  0  0  0  0  0  0  0  0  0
    4.1369   -1.3654    0.0000 O   0  0  0  0  0  0  0  0  0  0  0  0
    3.3523   -1.1104    0.0000 C   0  0  0  0  0  0  0  0  0  0  0  0
    2.6378   -1.5229    0.0000 C   0  0  0  0  0  0  0  0  0  0  0  0
    1.9233   -1.1104    0.0000 C   0  0  0  0  0  0  0  0  0  0  0  0
    0.3739   -3.7192    0.0000 C   0  0  0  0  0  0  0  0  0  0  0  0
    0.1190   -4.5039    0.0000 C   0  0  0  0  0  0  0  0  0  0  0  0
  1  2  1  0  0  0  0
  2  3  1  0  0  0  0
  3  4  2  0  0  0  0
  3  8  1  0  0  0  0
  4  5  1  0  0  0  0
  5  6  2  0  0  0  0
  6  7  1  0  0  0  0
  7  8  2  0  0  0  0
  8  9  1  0  0  0  0
  9 10  1  0  0  0  0
  9 28  1  0  0  0  0
 10 11  1  0  0  0  0
 11 12  1  0  0  0  0
 12 13  1  0  0  0  0
 12 27  1  0  0  0  0
 13 14  1  0  0  0  0
 14 15  1  0  0  0  0
 15 16  2  0  0  0  0
 15 26  1  0  0  0  0
 16 17  1  0  0  0  0
 17 18  1  0  0  0  0
 18 19  2  0  0  0  0
 18 26  1  0  0  0  0
 19 20  1  0  0  0  0
 20 21  1  0  0  0  0
 20 24  2  0  0  0  0
 21 22  1  0  0  0  0
 22 23  1  0  0  0  0
 23 24  1  0  0  0  0
 24 25  1  0  0  0  0
 25 26  2  0  0  0  0
 27 28  1  0  0  0  0
M  END
$$$$

 OpenBabel12191814062D

 26 28  0  0  0  0  0  0  0  0999 V2000
   -3.5724   -2.8875    0.0000 C   0  0  0  0  0  0  0  0  0  0  0  0
   -2.8579   -2.4750    0.0000 O   0  0  0  0  0  0  0  0  0  0  0  0
   -2.8579   -1.6500    0.0000 C   0  0  0  0  0  0  0  0  0  0  0  0
   -3.5724   -1.2375    0.0000 C   0  0  0  0  0  0  0  0  0  0  0  0
   -3.5724   -0.4125    0.0000 C   0  0  0  0  0  0  0  0  0  0  0  0
   -2.8579    0.0000    0.0000 C   0  0  0  0  0  0  0  0  0  0  0  0
   -2.1434   -0.4125    0.0000 C   0  0  0  0  0  0  0  0  0  0  0  0
   -2.1434   -1.2375    0.0000 C   0  0  0  0  0  0  0  0  0  0  0  0
   -1.4289   -1.6500    0.0000 N   0  0  0  0  0  0  0  0  0  0  0  0
   -0.7145   -1.2375    0.0000 C   0  0  0  0  0  0  0  0  0  0  0  0
    0.0000   -1.6500    0.0000 C   0  0  0  0  0  0  0  0  0  0  0  0
    0.0000   -2.4750    0.0000 N   0  0  0  0  0  0  0  0  0  0  0  0
    0.7145   -2.8875    0.0000 C   0  0  0  0  0  0  0  0  0  0  0  0
    1.4289   -2.4750    0.0000 C   0  0  0  0  0  0  0  0  0  0  0  0
    2.1434   -2.8875    0.0000 C   0  0  0  0  0  0  0  0  0  0  0  0
    2.8579   -2.4750    0.0000 C   0  0  0  0  0  0  0  0  0  0  0  0
    2.8579   -1.6500    0.0000 O   0  0  0  0  0  0  0  0  0  0  0  0
    3.5724   -2.8875    0.0000 C   0  0  0  0  0  0  0  0  0  0  0  0
    4.2868   -2.4750    0.0000 C   0  0  0  0  0  0  0  0  0  0  0  0
    5.0013   -2.8875    0.0000 C   0  0  0  0  0  0  0  0  0  0  0  0
    5.0013   -3.7125    0.0000 C   0  0  0  0  0  0  0  0  0  0  0  0
    5.7158   -4.1250    0.0000 F   0  0  0  0  0  0  0  0  0  0  0  0
    4.2868   -4.1250    0.0000 C   0  0  0  0  0  0  0  0  0  0  0  0
    3.5724   -3.7125    0.0000 C   0  0  0  0  0  0  0  0  0  0  0  0
   -0.7145   -2.8875    0.0000 C   0  0  0  0  0  0  0  0  0  0  0  0
   -1.4289   -2.4750    0.0000 C   0  0  0  0  0  0  0  0  0  0  0  0
  1  2  1  0  0  0  0
  2  3  1  0  0  0  0
  3  4  2  0  0  0  0
  3  8  1  0  0  0  0
  4  5  1  0  0  0  0
  5  6  2  0  0  0  0
  6  7  1  0  0  0  0
  7  8  2  0  0  0  0
  8  9  1  0  0  0  0
  9 10  1  0  0  0  0
  9 26  1  0  0  0  0
 10 11  1  0  0  0  0
 11 12  1  0  0  0  0
 12 13  1  0  0  0  0
 12 25  1  0  0  0  0
 13 14  1  0  0  0  0
 14 15  1  0  0  0  0
 15 16  1  0  0  0  0
 16 17  2  0  0  0  0
 16 18  1  0  0  0  0
 18 19  2  0  0  0  0
 18 24  1  0  0  0  0
 19 20  1  0  0  0  0
 20 21  2  0  0  0  0
 21 22  1  0  0  0  0
 21 23  1  0  0  0  0
 23 24  2  0  0  0  0
 25 26  1  0  0  0  0
M  END
$$$$

 OpenBabel12191814062D

 30 33  0  0  0  0  0  0  0  0999 V2000
    5.9517    0.7451    0.0000 C   0  0  0  0  0  0  0  0  0  0  0  0
    5.9517    1.5701    0.0000 O   0  0  0  0  0  0  0  0  0  0  0  0
    5.2372    1.9826    0.0000 C   0  0  0  0  0  0  0  0  0  0  0  0
    4.5228    1.5701    0.0000 C   0  0  0  0  0  0  0  0  0  0  0  0
    3.8083    1.9826    0.0000 C   0  0  0  0  0  0  0  0  0  0  0  0
    3.8083    2.8076    0.0000 C   0  0  0  0  0  0  0  0  0  0  0  0
    4.5228    3.2201    0.0000 C   0  0  0  0  0  0  0  0  0  0  0  0
    5.2372    2.8076    0.0000 C   0  0  0  0  0  0  0  0  0  0  0  0
    5.9517    3.2201    0.0000 O   0  0  0  0  0  0  0  0  0  0  0  0
    6.6662    2.8076    0.0000 C   0  0  0  0  0  0  0  0  0  0  0  0
    7.3807    3.2201    0.0000 C   0  0  0  0  0  0  0  0  0  0  0  0
    8.0951    2.8076    0.0000 N   0  0  0  0  0  0  0  0  0  0  0  0
    8.8096    3.2201    0.0000 C   0  0  0  0  0  0  0  0  0  0  0  0
    9.5241    2.8076    0.0000 C   0  0  3  0  0  0  0  0  0  0  0  0
    9.5241    1.9826    0.0000 O   0  0  0  0  0  0  0  0  0  0  0  0
   10.2385    3.2201    0.0000 C   0  0  0  0  0  0  0  0  0  0  0  0
   10.9530    2.8076    0.0000 O   0  0  0  0  0  0  0  0  0  0  0  0
   11.6675    3.2201    0.0000 C   0  0  0  0  0  0  0  0  0  0  0  0
   11.6675    4.0451    0.0000 C   0  0  0  0  0  0  0  0  0  0  0  0
   12.3820    4.4576    0.0000 C   0  0  0  0  0  0  0  0  0  0  0  0
   13.0964    4.0451    0.0000 C   0  0  0  0  0  0  0  0  0  0  0  0
   13.0964    3.2201    0.0000 C   0  0  0  0  0  0  0  0  0  0  0  0
   13.7095    2.6681    0.0000 N   0  0  0  0  0  0  0  0  0  0  0  0
   13.3740    1.9144    0.0000 C   0  0  0  0  0  0  0  0  0  0  0  0
   13.7095    1.1607    0.0000 C   0  0  0  0  0  0  0  0  0  0  0  0
   13.2246    0.4933    0.0000 C   0  0  0  0  0  0  0  0  0  0  0  0
   12.4041    0.5795    0.0000 C   0  0  0  0  0  0  0  0  0  0  0  0
   12.0686    1.3332    0.0000 C   0  0  0  0  0  0  0  0  0  0  0  0
   12.5535    2.0006    0.0000 C   0  0  0  0  0  0  0  0  0  0  0  0
   12.3820    2.8076    0.0000 C   0  0  0  0  0  0  0  0  0  0  0  0
  1  2  1  0  0  0  0
  2  3  1  0  0  0  0
  3  4  2  0  0  0  0
  3  8  1  0  0  0  0
  4  5  1  0  0  0  0
  5  6  2  0  0  0  0
  6  7  1  0  0  0  0
  7  8  2  0  0  0  0
  8  9  1  0  0  0  0
  9 10  1  0  0  0  0
 10 11  1  0  0  0  0
 11 12  1  0  0  0  0
 12 13  1  0  0  0  0
 13 14  1  0  0  0  0
 14 15  1  0  0  0  0
 14 16  1  0  0  0  0
 16 17  1  0  0  0  0
 17 18  1  0  0  0  0
 18 19  2  0  0  0  0
 18 30  1  0  0  0  0
 19 20  1  0  0  0  0
 20 21  2  0  0  0  0
 21 22  1  0  0  0  0
 22 23  1  0  0  0  0
 22 30  2  0  0  0  0
 23 24  1  0  0  0  0
 24 25  2  0  0  0  0
 24 29  1  0  0  0  0
 25 26  1  0  0  0  0
 26 27  2  0  0  0  0
 27 28  1  0  0  0  0
 28 29  2  0  0  0  0
 29 30  1  0  0  0  0
M  END
$$$$

 OpenBabel12191814062D

 35 39  0  0  0  0  0  0  0  0999 V2000
    0.9458    6.1070    0.0000 C   0  0  0  0  0  0  0  0  0  0  0  0
    1.6603    6.5195    0.0000 O   0  0  0  0  0  0  0  0  0  0  0  0
    2.3747    6.1070    0.0000 C   0  0  0  0  0  0  0  0  0  0  0  0
    3.0892    6.5195    0.0000 N   0  0  0  0  0  0  0  0  0  0  0  0
    3.8037    6.1070    0.0000 C   0  0  0  0  0  0  0  0  0  0  0  0
    4.5181    6.5195    0.0000 N   0  0  0  0  0  0  0  0  0  0  0  0
    4.5181    7.3445    0.0000 C   0  0  0  0  0  0  0  0  0  0  0  0
    5.2326    7.7570    0.0000 C   0  0  0  0  0  0  0  0  0  0  0  0
    5.2326    8.5820    0.0000 C   0  0  0  0  0  0  0  0  0  0  0  0
    3.8037    5.2820    0.0000 N   0  0  0  0  0  0  0  0  0  0  0  0
    3.0892    4.8695    0.0000 C   0  0  0  0  0  0  0  0  0  0  0  0
    2.3747    5.2820    0.0000 N   0  0  0  0  0  0  0  0  0  0  0  0
    3.0892    4.0445    0.0000 N   0  0  0  0  0  0  0  0  0  0  0  0
    3.8037    3.6320    0.0000 C   0  0  0  0  0  0  0  0  0  0  0  0
    3.8037    2.8070    0.0000 C   0  0  0  0  0  0  0  0  0  0  0  0
    3.0892    2.3945    0.0000 C   0  0  0  0  0  0  0  0  0  0  0  0
    2.3747    2.8070    0.0000 C   0  0  0  0  0  0  0  0  0  0  0  0
    2.3747    3.6320    0.0000 C   0  0  0  0  0  0  0  0  0  0  0  0
    3.0892    1.5695    0.0000 N   0  0  0  0  0  0  0  0  0  0  0  0
    3.8037    1.1570    0.0000 C   0  0  0  0  0  0  0  0  0  0  0  0
    3.8037    0.3320    0.0000 C   0  0  0  0  0  0  0  0  0  0  0  0
    4.5470   -0.0260    0.0000 C   0  0  0  0  0  0  0  0  0  0  0  0
    5.1517    0.5352    0.0000 C   0  0  0  0  0  0  0  0  0  0  0  0
    5.9401    0.2920    0.0000 C   0  0  0  0  0  0  0  0  0  0  0  0
    6.1237   -0.5123    0.0000 C   0  0  0  0  0  0  0  0  0  0  0  0
    5.5189   -1.0735    0.0000 C   0  0  0  0  0  0  0  0  0  0  0  0
    4.7305   -0.8303    0.0000 C   0  0  0  0  0  0  0  0  0  0  0  0
    4.2162   -1.4753    0.0000 C   0  0  0  0  0  0  0  0  0  0  0  0
    3.3912   -1.4753    0.0000 C   0  0  0  0  0  0  0  0  0  0  0  0
    2.8768   -0.8303    0.0000 C   0  0  0  0  0  0  0  0  0  0  0  0
    2.0884   -1.0735    0.0000 C   0  0  0  0  0  0  0  0  0  0  0  0
    1.4837   -0.5123    0.0000 C   0  0  0  0  0  0  0  0  0  0  0  0
    1.6673    0.2920    0.0000 C   0  0  0  0  0  0  0  0  0  0  0  0
    2.4556    0.5352    0.0000 C   0  0  0  0  0  0  0  0  0  0  0  0
    3.0604   -0.0260    0.0000 C   0  0  0  0  0  0  0  0  0  0  0  0
  1  2  1  0  0  0  0
  2  3  1  0  0  0  0
  3  4  2  0  0  0  0
  3 12  1  0  0  0  0
  4  5  1  0  0  0  0
  5  6  1  0  0  0  0
  5 10  2  0  0  0  0
  6  7  1  0  0  0  0
  7  8  1  0  0  0  0
  8  9  2  0  0  0  0
 10 11  1  0  0  0  0
 11 12  2  0  0  0  0
 11 13  1  0  0  0  0
 13 14  1  0  0  0  0
 13 18  1  0  0  0  0
 14 15  1  0  0  0  0
 15 16  1  0  0  0  0
 16 17  1  0  0  0  0
 16 19  1  0  0  0  0
 17 18  1  0  0  0  0
 19 20  1  0  0  0  0
 20 21  1  0  0  0  0
 21 22  1  0  0  0  0
 21 35  1  0  0  0  0
 22 23  2  0  0  0  0
 22 27  1  0  0  0  0
 23 24  1  0  0  0  0
 24 25  2  0  0  0  0
 25 26  1  0  0  0  0
 26 27  2  0  0  0  0
 27 28  1  0  0  0  0
 28 29  1  0  0  0  0
 29 30  1  0  0  0  0
 30 31  2  0  0  0  0
 30 35  1  0  0  0  0
 31 32  1  0  0  0  0
 32 33  2  0  0  0  0
 33 34  1  0  0  0  0
 34 35  2  0  0  0  0
M  END
$$$$

 OpenBabel12191814062D

 36 39  0  0  0  0  0  0  0  0999 V2000
    0.3983   -4.1952    0.0000 C   0  0  0  0  0  0  0  0  0  0  0  0
    1.2107   -4.0520    0.0000 O   0  0  0  0  0  0  0  0  0  0  0  0
    1.4929   -3.2767    0.0000 C   0  0  0  0  0  0  0  0  0  0  0  0
    2.3054   -3.1335    0.0000 C   0  0  0  0  0  0  0  0  0  0  0  0
    2.8357   -3.7654    0.0000 O   0  0  0  0  0  0  0  0  0  0  0  0
    2.5875   -2.3582    0.0000 O   0  0  0  0  0  0  0  0  0  0  0  0
    2.0572   -1.7262    0.0000 C   0  0  3  0  0  0  0  0  0  0  0  0
    2.7717   -1.3137    0.0000 C   0  0  0  0  0  0  0  0  0  0  0  0
    3.4862   -1.7262    0.0000 C   0  0  0  0  0  0  0  0  0  0  0  0
    4.2007   -1.3137    0.0000 N   0  0  0  0  0  0  0  0  0  0  0  0
    4.2007   -0.4887    0.0000 C   0  0  0  0  0  0  0  0  0  0  0  0
    4.9151   -1.7262    0.0000 C   0  0  0  0  0  0  0  0  0  0  0  0
    5.6296   -1.3137    0.0000 C   0  0  0  0  0  0  0  0  0  0  0  0
    6.3441   -1.7262    0.0000 C   0  0  0  0  0  0  0  0  0  0  0  0
    6.3441   -2.5512    0.0000 C   0  0  0  0  0  0  0  0  0  0  0  0
    7.0115   -3.0361    0.0000 N   0  0  0  0  0  0  0  0  0  0  0  0
    6.7566   -3.8208    0.0000 C   0  0  0  0  0  0  0  0  0  0  0  0
    7.1691   -4.5352    0.0000 C   0  0  0  0  0  0  0  0  0  0  0  0
    6.7566   -5.2497    0.0000 C   0  0  0  0  0  0  0  0  0  0  0  0
    5.9316   -5.2497    0.0000 C   0  0  0  0  0  0  0  0  0  0  0  0
    5.5191   -4.5352    0.0000 C   0  0  0  0  0  0  0  0  0  0  0  0
    5.9316   -3.8208    0.0000 C   0  0  0  0  0  0  0  0  0  0  0  0
    5.6766   -3.0361    0.0000 N   0  0  0  0  0  0  0  0  0  0  0  0
    1.5269   -2.3582    0.0000 C   0  0  0  0  0  0  0  0  0  0  0  0
    0.7145   -2.2150    0.0000 C   0  0  0  0  0  0  0  0  0  0  0  0
    0.4323   -1.4397    0.0000 C   0  0  0  0  0  0  0  0  0  0  0  0
   -0.3802   -1.2964    0.0000 C   0  0  0  0  0  0  0  0  0  0  0  0
   -0.6623   -0.5212    0.0000 C   0  0  0  0  0  0  0  0  0  0  0  0
   -1.4748   -0.3779    0.0000 F   0  0  0  0  0  0  0  0  0  0  0  0
   -0.1320    0.1108    0.0000 C   0  0  0  0  0  0  0  0  0  0  0  0
    0.6804   -0.0325    0.0000 C   0  0  0  0  0  0  0  0  0  0  0  0
    0.9626   -0.8077    0.0000 C   0  0  0  0  0  0  0  0  0  0  0  0
    1.7751   -0.9510    0.0000 C   0  0  3  0  0  0  0  0  0  0  0  0
    2.3054   -0.3190    0.0000 C   0  0  0  0  0  0  0  0  0  0  0  0
    3.1178   -0.4623    0.0000 C   0  0  0  0  0  0  0  0  0  0  0  0
    2.0232    0.4563    0.0000 C   0  0  0  0  0  0  0  0  0  0  0  0
  1  2  1  0  0  0  0
  2  3  1  0  0  0  0
  3  4  1  0  0  0  0
  4  5  2  0  0  0  0
  4  6  1  0  0  0  0
  6  7  1  0  0  0  0
  7  8  1  0  0  0  0
  7 24  1  0  0  0  0
  7 33  1  0  0  0  0
  8  9  1  0  0  0  0
  9 10  1  0  0  0  0
 10 11  1  0  0  0  0
 10 12  1  0  0  0  0
 12 13  1  0  0  0  0
 13 14  1  0  0  0  0
 14 15  1  0  0  0  0
 15 16  1  0  0  0  0
 15 23  2  0  0  0  0
 16 17  1  0  0  0  0
 17 18  2  0  0  0  0
 17 22  1  0  0  0  0
 18 19  1  0  0  0  0
 19 20  2  0  0  0  0
 20 21  1  0  0  0  0
 21 22  2  0  0  0  0
 22 23  1  0  0  0  0
 24 25  1  0  0  0  0
 25 26  1  0  0  0  0
 26 27  2  0  0  0  0
 26 32  1  0  0  0  0
 27 28  1  0  0  0  0
 28 29  1  0  0  0  0
 28 30  2  0  0  0  0
 30 31  1  0  0  0  0
 31 32  2  0  0  0  0
 32 33  1  0  0  0  0
 33 34  1  0  0  0  0
 34 35  1  0  0  0  0
 34 36  1  0  0  0  0
M  END
$$$$

 OpenBabel12191814062D

 36 39  0  0  0  0  0  0  0  0999 V2000
    0.0000   -4.9500    0.0000 C   0  0  0  0  0  0  0  0  0  0  0  0
    0.0000   -4.1250    0.0000 O   0  0  0  0  0  0  0  0  0  0  0  0
    0.7145   -3.7125    0.0000 C   0  0  0  0  0  0  0  0  0  0  0  0
    0.7145   -2.8875    0.0000 C   0  0  0  0  0  0  0  0  0  0  0  0
    0.0000   -2.4750    0.0000 O   0  0  0  0  0  0  0  0  0  0  0  0
    1.4289   -2.4750    0.0000 O   0  0  0  0  0  0  0  0  0  0  0  0
    1.4289   -1.6500    0.0000 C   0  0  3  0  0  0  0  0  0  0  0  0
    0.7145   -1.2375    0.0000 C   0  0  0  0  0  0  0  0  0  0  0  0
    0.7145   -0.4125    0.0000 C   0  0  0  0  0  0  0  0  0  0  0  0
    0.0000    0.0000    0.0000 C   0  0  0  0  0  0  0  0  0  0  0  0
    0.0000    0.8250    0.0000 C   0  0  0  0  0  0  0  0  0  0  0  0
   -0.7145    1.2375    0.0000 F   0  0  0  0  0  0  0  0  0  0  0  0
    0.7145    1.2375    0.0000 C   0  0  0  0  0  0  0  0  0  0  0  0
    1.4289    0.8250    0.0000 C   0  0  0  0  0  0  0  0  0  0  0  0
    1.4289    0.0000    0.0000 C   0  0  0  0  0  0  0  0  0  0  0  0
    2.1434   -0.4125    0.0000 C   0  0  3  0  0  0  0  0  0  0  0  0
    2.8579    0.0000    0.0000 C   0  0  0  0  0  0  0  0  0  0  0  0
    3.5724   -0.4125    0.0000 C   0  0  0  0  0  0  0  0  0  0  0  0
    2.8579    0.8250    0.0000 C   0  0  0  0  0  0  0  0  0  0  0  0
    2.1434   -1.2375    0.0000 C   0  0  3  0  0  0  0  0  0  0  0  0
    2.8579   -1.6500    0.0000 C   0  0  0  0  0  0  0  0  0  0  0  0
    3.5724   -1.2375    0.0000 C   0  0  0  0  0  0  0  0  0  0  0  0
    4.2868   -1.6500    0.0000 N   0  0  0  0  0  0  0  0  0  0  0  0
    4.2868   -2.4750    0.0000 C   0  0  0  0  0  0  0  0  0  0  0  0
    5.0013   -1.2375    0.0000 C   0  0  0  0  0  0  0  0  0  0  0  0
    5.7158   -1.6500    0.0000 C   0  0  0  0  0  0  0  0  0  0  0  0
    6.4302   -1.2375    0.0000 C   0  0  0  0  0  0  0  0  0  0  0  0
    7.1447   -1.6500    0.0000 C   0  0  0  0  0  0  0  0  0  0  0  0
    7.8984   -1.3144    0.0000 N   0  0  0  0  0  0  0  0  0  0  0  0
    8.4504   -1.9275    0.0000 C   0  0  0  0  0  0  0  0  0  0  0  0
    9.2754   -1.9275    0.0000 C   0  0  0  0  0  0  0  0  0  0  0  0
    9.6879   -2.6420    0.0000 C   0  0  0  0  0  0  0  0  0  0  0  0
    9.2754   -3.3565    0.0000 C   0  0  0  0  0  0  0  0  0  0  0  0
    8.4504   -3.3565    0.0000 C   0  0  0  0  0  0  0  0  0  0  0  0
    8.0379   -2.6420    0.0000 C   0  0  0  0  0  0  0  0  0  0  0  0
    7.2309   -2.4705    0.0000 N   0  0  0  0  0  0  0  0  0  0  0  0
  1  2  1  0  0  0  0
  2  3  1  0  0  0  0
  3  4  1  0  0  0  0
  4  5  2  0  0  0  0
  4  6  1  0  0  0  0
  6  7  1  0  0  0  0
  7  8  1  0  0  0  0
  7 20  1  0  0  0  0
  8  9  1  0  0  0  0
  9 10  2  0  0  0  0
  9 15  1  0  0  0  0
 10 11  1  0  0  0  0
 11 12  1  0  0  0  0
 11 13  2  0  0  0  0
 13 14  1  0  0  0  0
 14 15  2  0  0  0  0
 15 16  1  0  0  0  0
 16 17  1  0  0  0  0
 16 20  1  0  0  0  0
 17 18  1  0  0  0  0
 17 19  1  0  0  0  0
 20 21  1  0  0  0  0
 21 22  1  0  0  0  0
 22 23  1  0  0  0  0
 23 24  1  0  0  0  0
 23 25  1  0  0  0  0
 25 26  1  0  0  0  0
 26 27  1  0  0  0  0
 27 28  1  0  0  0  0
 28 29  1  0  0  0  0
 28 36  2  0  0  0  0
 29 30  1  0  0  0  0
 30 31  2  0  0  0  0
 30 35  1  0  0  0  0
 31 32  1  0  0  0  0
 32 33  2  0  0  0  0
 33 34  1  0  0  0  0
 34 35  2  0  0  0  0
 35 36  1  0  0  0  0
M  END
$$$$

 OpenBabel12191814062D

 22 22  0  0  0  0  0  0  0  0999 V2000
   -2.1434   -4.5375    0.0000 C   0  0  0  0  0  0  0  0  0  0  0  0
   -1.4289   -4.1250    0.0000 O   0  0  0  0  0  0  0  0  0  0  0  0
   -0.7145   -4.5375    0.0000 C   0  0  0  0  0  0  0  0  0  0  0  0
    0.0000   -4.1250    0.0000 C   0  0  0  0  0  0  0  0  0  0  0  0
    0.7145   -4.5375    0.0000 C   0  0  0  0  0  0  0  0  0  0  0  0
    1.4289   -4.1250    0.0000 C   0  0  0  0  0  0  0  0  0  0  0  0
    2.1434   -4.5375    0.0000 C   0  0  0  0  0  0  0  0  0  0  0  0
    2.1434   -5.3625    0.0000 N   0  0  0  0  0  0  0  0  0  0  0  0
    1.4289   -5.7750    0.0000 O   0  0  0  0  0  0  0  0  0  0  0  0
    1.4289   -6.6000    0.0000 C   0  0  0  0  0  0  0  0  0  0  0  0
    2.1434   -7.0125    0.0000 C   0  0  0  0  0  0  0  0  0  0  0  0
    2.1434   -7.8375    0.0000 N   0  0  0  0  0  0  0  0  0  0  0  0
    2.8579   -4.1250    0.0000 C   0  0  0  0  0  0  0  0  0  0  0  0
    2.8579   -3.3000    0.0000 C   0  0  0  0  0  0  0  0  0  0  0  0
    3.5724   -2.8875    0.0000 C   0  0  0  0  0  0  0  0  0  0  0  0
    4.2868   -3.3000    0.0000 C   0  0  0  0  0  0  0  0  0  0  0  0
    4.2868   -4.1250    0.0000 C   0  0  0  0  0  0  0  0  0  0  0  0
    3.5724   -4.5375    0.0000 C   0  0  0  0  0  0  0  0  0  0  0  0
    5.0013   -2.8875    0.0000 C   0  0  0  0  0  0  0  0  0  0  0  0
    5.7158   -2.4750    0.0000 F   0  0  0  0  0  0  0  0  0  0  0  0
    5.4138   -3.6020    0.0000 F   0  0  0  0  0  0  0  0  0  0  0  0
    4.5888   -2.1730    0.0000 F   0  0  0  0  0  0  0  0  0  0  0  0
  1  2  1  0  0  0  0
  2  3  1  0  0  0  0
  3  4  1  0  0  0  0
  4  5  1  0  0  0  0
  5  6  1  0  0  0  0
  6  7  1  0  0  0  0
  7  8  2  0  0  0  0
  7 13  1  0  0  0  0
  8  9  1  0  0  0  0
  9 10  1  0  0  0  0
 10 11  1  0  0  0  0
 11 12  1  0  0  0  0
 13 14  2  0  0  0  0
 13 18  1  0  0  0  0
 14 15  1  0  0  0  0
 15 16  2  0  0  0  0
 16 17  1  0  0  0  0
 16 19  1  0  0  0  0
 17 18  2  0  0  0  0
 19 20  1  0  0  0  0
 19 21  1  0  0  0  0
 19 22  1  0  0  0  0
M  END
$$$$

 OpenBabel12191814062D

 34 37  0  0  0  0  0  0  0  0999 V2000
   -0.7145    4.5375    0.0000 C   0  0  0  0  0  0  0  0  0  0  0  0
   -0.7145    3.7125    0.0000 O   0  0  0  0  0  0  0  0  0  0  0  0
    0.0000    3.3000    0.0000 C   0  0  0  0  0  0  0  0  0  0  0  0
    0.0000    2.4750    0.0000 C   0  0  0  0  0  0  0  0  0  0  0  0
    0.7145    2.0625    0.0000 C   0  0  0  0  0  0  0  0  0  0  0  0
    0.7145    1.2375    0.0000 C   0  0  0  0  0  0  0  0  0  0  0  0
    1.4289    0.8250    0.0000 C   0  0  0  0  0  0  0  0  0  0  0  0
    1.4289   -0.0000    0.0000 C   0  0  0  0  0  0  0  0  0  0  0  0
    0.7145   -0.4125    0.0000 C   0  0  0  0  0  0  0  0  0  0  0  0
    0.0000   -0.0000    0.0000 C   0  0  0  0  0  0  0  0  0  0  0  0
    0.0000    0.8250    0.0000 C   0  0  0  0  0  0  0  0  0  0  0  0
    0.7145   -1.2375    0.0000 C   0  0  0  0  0  0  0  0  0  0  0  0
    1.3819   -1.7224    0.0000 N   0  0  0  0  0  0  0  0  0  0  0  0
    1.1270   -2.5070    0.0000 C   0  0  0  0  0  0  0  0  0  0  0  0
    0.3020   -2.5070    0.0000 C   0  0  0  0  0  0  0  0  0  0  0  0
    0.0470   -1.7224    0.0000 N   0  0  0  0  0  0  0  0  0  0  0  0
   -0.1830   -3.1745    0.0000 C   0  0  0  0  0  0  0  0  0  0  0  0
    0.1526   -3.9282    0.0000 C   0  0  0  0  0  0  0  0  0  0  0  0
   -0.3323   -4.5956    0.0000 C   0  0  0  0  0  0  0  0  0  0  0  0
   -1.1528   -4.5094    0.0000 C   0  0  0  0  0  0  0  0  0  0  0  0
   -1.4884   -3.7557    0.0000 C   0  0  0  0  0  0  0  0  0  0  0  0
   -1.0034   -3.0882    0.0000 C   0  0  0  0  0  0  0  0  0  0  0  0
   -1.6377   -5.1768    0.0000 N   0  0  0  0  0  0  0  0  0  0  0  0
   -1.3022   -5.9305    0.0000 C   0  0  0  0  0  0  0  0  0  0  0  0
   -2.4582   -5.0906    0.0000 C   0  0  0  0  0  0  0  0  0  0  0  0
    1.6119   -3.1745    0.0000 C   0  0  0  0  0  0  0  0  0  0  0  0
    2.4324   -3.0882    0.0000 C   0  0  0  0  0  0  0  0  0  0  0  0
    2.9173   -3.7557    0.0000 C   0  0  0  0  0  0  0  0  0  0  0  0
    2.5817   -4.5094    0.0000 C   0  0  0  0  0  0  0  0  0  0  0  0
    1.7613   -4.5956    0.0000 C   0  0  0  0  0  0  0  0  0  0  0  0
    1.2763   -3.9282    0.0000 C   0  0  0  0  0  0  0  0  0  0  0  0
    3.0667   -5.1768    0.0000 N   0  0  0  0  0  0  0  0  0  0  0  0
    2.7311   -5.9305    0.0000 C   0  0  0  0  0  0  0  0  0  0  0  0
    3.8871   -5.0906    0.0000 C   0  0  0  0  0  0  0  0  0  0  0  0
  1  2  1  0  0  0  0
  2  3  1  0  0  0  0
  3  4  1  0  0  0  0
  4  5  1  0  0  0  0
  5  6  1  0  0  0  0
  6  7  2  0  0  0  0
  6 11  1  0  0  0  0
  7  8  1  0  0  0  0
  8  9  2  0  0  0  0
  9 10  1  0  0  0  0
  9 12  1  0  0  0  0
 10 11  2  0  0  0  0
 12 13  1  0  0  0  0
 12 16  2  0  0  0  0
 13 14  1  0  0  0  0
 14 15  2  0  0  0  0
 14 26  1  0  0  0  0
 15 16  1  0  0  0  0
 15 17  1  0  0  0  0
 17 18  2  0  0  0  0
 17 22  1  0  0  0  0
 18 19  1  0  0  0  0
 19 20  2  0  0  0  0
 20 21  1  0  0  0  0
 20 23  1  0  0  0  0
 21 22  2  0  0  0  0
 23 24  1  0  0  0  0
 23 25  1  0  0  0  0
 26 27  2  0  0  0  0
 26 31  1  0  0  0  0
 27 28  1  0  0  0  0
 28 29  2  0  0  0  0
 29 30  1  0  0  0  0
 29 32  1  0  0  0  0
 30 31  2  0  0  0  0
 32 33  1  0  0  0  0
 32 34  1  0  0  0  0
M  END
$$$$

 OpenBabel12191814062D

 35 38  0  0  0  0  0  0  0  0999 V2000
   -2.6509   -8.4315    0.0000 C   0  0  0  0  0  0  0  0  0  0  0  0
   -1.9365   -8.0190    0.0000 O   0  0  0  0  0  0  0  0  0  0  0  0
   -1.2220   -8.4315    0.0000 C   0  0  0  0  0  0  0  0  0  0  0  0
   -0.5075   -8.0190    0.0000 C   0  0  0  0  0  0  0  0  0  0  0  0
    0.2070   -8.4315    0.0000 C   0  0  0  0  0  0  0  0  0  0  0  0
    0.9214   -8.0190    0.0000 C   0  0  0  0  0  0  0  0  0  0  0  0
    1.6359   -8.4315    0.0000 C   0  0  0  0  0  0  0  0  0  0  0  0
    2.3504   -8.0190    0.0000 C   0  0  0  0  0  0  0  0  0  0  0  0
    3.0648   -8.4315    0.0000 C   0  0  0  0  0  0  0  0  0  0  0  0
    3.0648   -9.2565    0.0000 C   0  0  0  0  0  0  0  0  0  0  0  0
    2.3504   -9.6690    0.0000 C   0  0  0  0  0  0  0  0  0  0  0  0
    1.6359   -9.2565    0.0000 C   0  0  0  0  0  0  0  0  0  0  0  0
    3.7793   -9.6690    0.0000 C   0  0  0  0  0  0  0  0  0  0  0  0
    4.5330   -9.3335    0.0000 N   0  0  0  0  0  0  0  0  0  0  0  0
    5.0850   -9.9466    0.0000 C   0  0  0  0  0  0  0  0  0  0  0  0
    4.6725  -10.6610    0.0000 C   0  0  0  0  0  0  0  0  0  0  0  0
    3.8656  -10.4895    0.0000 N   0  0  0  0  0  0  0  0  0  0  0  0
    5.0081  -11.4147    0.0000 C   0  0  0  0  0  0  0  0  0  0  0  0
    5.8286  -11.5009    0.0000 C   0  0  0  0  0  0  0  0  0  0  0  0
    6.1641  -12.2546    0.0000 C   0  0  0  0  0  0  0  0  0  0  0  0
    5.6792  -12.9221    0.0000 C   0  0  0  0  0  0  0  0  0  0  0  0
    4.8587  -12.8358    0.0000 C   0  0  0  0  0  0  0  0  0  0  0  0
    4.5232  -12.0822    0.0000 C   0  0  0  0  0  0  0  0  0  0  0  0
    6.0148  -13.6757    0.0000 N   0  0  0  0  0  0  0  0  0  0  0  0
    6.8352  -13.7620    0.0000 C   0  0  0  0  0  0  0  0  0  0  0  0
    5.5298  -14.3432    0.0000 C   0  0  0  0  0  0  0  0  0  0  0  0
    5.9055   -9.8603    0.0000 C   0  0  0  0  0  0  0  0  0  0  0  0
    6.2411   -9.1067    0.0000 C   0  0  0  0  0  0  0  0  0  0  0  0
    7.0615   -9.0204    0.0000 C   0  0  0  0  0  0  0  0  0  0  0  0
    7.5465   -9.6879    0.0000 C   0  0  0  0  0  0  0  0  0  0  0  0
    7.2109  -10.4415    0.0000 C   0  0  0  0  0  0  0  0  0  0  0  0
    6.3904  -10.5278    0.0000 C   0  0  0  0  0  0  0  0  0  0  0  0
    8.3669   -9.6016    0.0000 N   0  0  0  0  0  0  0  0  0  0  0  0
    8.8519  -10.2691    0.0000 C   0  0  0  0  0  0  0  0  0  0  0  0
    8.7025   -8.8479    0.0000 C   0  0  0  0  0  0  0  0  0  0  0  0
  1  2  1  0  0  0  0
  2  3  1  0  0  0  0
  3  4  1  0  0  0  0
  4  5  1  0  0  0  0
  5  6  1  0  0  0  0
  6  7  1  0  0  0  0
  7  8  2  0  0  0  0
  7 12  1  0  0  0  0
  8  9  1  0  0  0  0
  9 10  2  0  0  0  0
 10 11  1  0  0  0  0
 10 13  1  0  0  0  0
 11 12  2  0  0  0  0
 13 14  1  0  0  0  0
 13 17  2  0  0  0  0
 14 15  1  0  0  0  0
 15 16  2  0  0  0  0
 15 27  1  0  0  0  0
 16 17  1  0  0  0  0
 16 18  1  0  0  0  0
 18 19  2  0  0  0  0
 18 23  1  0  0  0  0
 19 20  1  0  0  0  0
 20 21  2  0  0  0  0
 21 22  1  0  0  0  0
 21 24  1  0  0  0  0
 22 23  2  0  0  0  0
 24 25  1  0  0  0  0
 24 26  1  0  0  0  0
 27 28  2  0  0  0  0
 27 32  1  0  0  0  0
 28 29  1  0  0  0  0
 29 30  2  0  0  0  0
 30 31  1  0  0  0  0
 30 33  1  0  0  0  0
 31 32  2  0  0  0  0
 33 34  1  0  0  0  0
 33 35  1  0  0  0  0
M  END
$$$$

 OpenBabel12191814062D

 30 31  0  0  0  0  0  0  0  0999 V2000
    3.8743    0.7145    0.0000 C   0  0  0  0  0  0  0  0  0  0  0  0
    4.2868   -0.0000    0.0000 O   0  0  0  0  0  0  0  0  0  0  0  0
    5.1118   -0.0000    0.0000 C   0  0  0  0  0  0  0  0  0  0  0  0
    5.5243   -0.7145    0.0000 C   0  0  0  0  0  0  0  0  0  0  0  0
    6.3493   -0.7145    0.0000 O   0  0  0  0  0  0  0  0  0  0  0  0
    6.7618   -0.0000    0.0000 C   0  0  0  0  0  0  0  0  0  0  0  0
    6.3493    0.7145    0.0000 O   0  0  0  0  0  0  0  0  0  0  0  0
    7.5868   -0.0000    0.0000 C   0  0  0  0  0  0  0  0  0  0  0  0
    7.9993    0.7145    0.0000 C   0  0  0  0  0  0  0  0  0  0  0  0
    7.5868    1.4289    0.0000 C   0  0  0  0  0  0  0  0  0  0  0  0
    8.8243    0.7145    0.0000 N   0  0  0  0  0  0  0  0  0  0  0  0
    9.2368   -0.0000    0.0000 C   0  0  0  0  0  0  0  0  0  0  0  0
   10.0618   -0.0000    0.0000 C   0  0  0  0  0  0  0  0  0  0  0  0
    8.8243   -0.7145    0.0000 C   0  0  0  0  0  0  0  0  0  0  0  0
    7.9993   -0.7145    0.0000 C   0  0  3  0  0  0  0  0  0  0  0  0
    7.5868   -1.4289    0.0000 C   0  0  0  0  0  0  0  0  0  0  0  0
    7.9993   -2.1434    0.0000 C   0  0  0  0  0  0  0  0  0  0  0  0
    7.5868   -2.8579    0.0000 C   0  0  0  0  0  0  0  0  0  0  0  0
    6.7618   -2.8579    0.0000 C   0  0  0  0  0  0  0  0  0  0  0  0
    6.3493   -2.1434    0.0000 C   0  0  0  0  0  0  0  0  0  0  0  0
    6.7618   -1.4289    0.0000 C   0  0  0  0  0  0  0  0  0  0  0  0
    5.5243   -2.1434    0.0000 N   0  3  0  0  0  0  0  0  0  0  0  0
    5.1118   -2.8579    0.0000 O   0  5  0  0  0  0  0  0  0  0  0  0
    5.1118   -1.4289    0.0000 O   0  0  0  0  0  0  0  0  0  0  0  0
    9.2368   -1.4289    0.0000 C   0  0  0  0  0  0  0  0  0  0  0  0
    8.8243   -2.1434    0.0000 O   0  0  0  0  0  0  0  0  0  0  0  0
   10.0618   -1.4289    0.0000 O   0  0  0  0  0  0  0  0  0  0  0  0
   10.4743   -2.1434    0.0000 C   0  0  0  0  0  0  0  0  0  0  0  0
   11.2993   -2.1434    0.0000 C   0  0  0  0  0  0  0  0  0  0  0  0
   10.0618   -2.8579    0.0000 C   0  0  0  0  0  0  0  0  0  0  0  0
  1  2  1  0  0  0  0
  2  3  1  0  0  0  0
  3  4  1  0  0  0  0
  4  5  1  0  0  0  0
  5  6  1  0  0  0  0
  6  7  2  0  0  0  0
  6  8  1  0  0  0  0
  8  9  2  0  0  0  0
  8 15  1  0  0  0  0
  9 10  1  0  0  0  0
  9 11  1  0  0  0  0
 11 12  1  0  0  0  0
 12 13  1  0  0  0  0
 12 14  2  0  0  0  0
 14 15  1  0  0  0  0
 14 25  1  0  0  0  0
 15 16  1  0  0  0  0
 16 17  2  0  0  0  0
 16 21  1  0  0  0  0
 17 18  1  0  0  0  0
 18 19  2  0  0  0  0
 19 20  1  0  0  0  0
 20 21  2  0  0  0  0
 20 22  1  0  0  0  0
 22 23  1  0  0  0  0
 22 24  2  0  0  0  0
 25 26  2  0  0  0  0
 25 27  1  0  0  0  0
 27 28  1  0  0  0  0
 28 29  1  0  0  0  0
 28 30  1  0  0  0  0
M  CHG  2  22   1  23  -1
M  END
$$$$

 OpenBabel12191814062D

 37 40  0  0  0  0  0  0  0  0999 V2000
   -2.8003   -9.8526    0.0000 C   0  0  0  0  0  0  0  0  0  0  0  0
   -2.0858   -9.4401    0.0000 O   0  0  0  0  0  0  0  0  0  0  0  0
   -1.3713   -9.8526    0.0000 C   0  0  0  0  0  0  0  0  0  0  0  0
   -0.6569   -9.4401    0.0000 C   0  0  0  0  0  0  0  0  0  0  0  0
    0.0576   -9.8526    0.0000 O   0  0  0  0  0  0  0  0  0  0  0  0
    0.7721   -9.4401    0.0000 C   0  0  0  0  0  0  0  0  0  0  0  0
    1.4865   -9.8526    0.0000 C   0  0  0  0  0  0  0  0  0  0  0  0
    2.2010   -9.4401    0.0000 C   0  0  0  0  0  0  0  0  0  0  0  0
    2.9155   -9.8526    0.0000 C   0  0  0  0  0  0  0  0  0  0  0  0
    3.6300   -9.4401    0.0000 C   0  0  0  0  0  0  0  0  0  0  0  0
    4.3444   -9.8526    0.0000 C   0  0  0  0  0  0  0  0  0  0  0  0
    4.3444  -10.6776    0.0000 C   0  0  0  0  0  0  0  0  0  0  0  0
    3.6300  -11.0901    0.0000 C   0  0  0  0  0  0  0  0  0  0  0  0
    2.9155  -10.6776    0.0000 C   0  0  0  0  0  0  0  0  0  0  0  0
    5.0589  -11.0901    0.0000 C   0  0  0  0  0  0  0  0  0  0  0  0
    5.8126  -10.7546    0.0000 N   0  0  0  0  0  0  0  0  0  0  0  0
    6.3646  -11.3677    0.0000 C   0  0  0  0  0  0  0  0  0  0  0  0
    5.9521  -12.0822    0.0000 C   0  0  0  0  0  0  0  0  0  0  0  0
    5.1451  -11.9106    0.0000 N   0  0  0  0  0  0  0  0  0  0  0  0
    6.2877  -12.8358    0.0000 C   0  0  0  0  0  0  0  0  0  0  0  0
    7.1081  -12.9221    0.0000 C   0  0  0  0  0  0  0  0  0  0  0  0
    7.4437  -13.6757    0.0000 C   0  0  0  0  0  0  0  0  0  0  0  0
    6.9588  -14.3432    0.0000 C   0  0  0  0  0  0  0  0  0  0  0  0
    6.1383  -14.2569    0.0000 C   0  0  0  0  0  0  0  0  0  0  0  0
    5.8027  -13.5033    0.0000 C   0  0  0  0  0  0  0  0  0  0  0  0
    7.2943  -15.0969    0.0000 N   0  0  0  0  0  0  0  0  0  0  0  0
    8.1148  -15.1831    0.0000 C   0  0  0  0  0  0  0  0  0  0  0  0
    6.8094  -15.7643    0.0000 C   0  0  0  0  0  0  0  0  0  0  0  0
    7.1851  -11.2814    0.0000 C   0  0  0  0  0  0  0  0  0  0  0  0
    7.5206  -10.5278    0.0000 C   0  0  0  0  0  0  0  0  0  0  0  0
    8.3411  -10.4415    0.0000 C   0  0  0  0  0  0  0  0  0  0  0  0
    8.8260  -11.1090    0.0000 C   0  0  0  0  0  0  0  0  0  0  0  0
    8.4905  -11.8626    0.0000 C   0  0  0  0  0  0  0  0  0  0  0  0
    7.6700  -11.9489    0.0000 C   0  0  0  0  0  0  0  0  0  0  0  0
    9.6465  -11.0227    0.0000 N   0  0  0  0  0  0  0  0  0  0  0  0
   10.1314  -11.6902    0.0000 C   0  0  0  0  0  0  0  0  0  0  0  0
    9.9821  -10.2691    0.0000 C   0  0  0  0  0  0  0  0  0  0  0  0
  1  2  1  0  0  0  0
  2  3  1  0  0  0  0
  3  4  1  0  0  0  0
  4  5  1  0  0  0  0
  5  6  1  0  0  0  0
  6  7  1  0  0  0  0
  7  8  2  0  0  0  0
  8  9  1  0  0  0  0
  9 10  2  0  0  0  0
  9 14  1  0  0  0  0
 10 11  1  0  0  0  0
 11 12  2  0  0  0  0
 12 13  1  0  0  0  0
 12 15  1  0  0  0  0
 13 14  2  0  0  0  0
 15 16  1  0  0  0  0
 15 19  2  0  0  0  0
 16 17  1  0  0  0  0
 17 18  2  0  0  0  0
 17 29  1  0  0  0  0
 18 19  1  0  0  0  0
 18 20  1  0  0  0  0
 20 21  2  0  0  0  0
 20 25  1  0  0  0  0
 21 22  1  0  0  0  0
 22 23  2  0  0  0  0
 23 24  1  0  0  0  0
 23 26  1  0  0  0  0
 24 25  2  0  0  0  0
 26 27  1  0  0  0  0
 26 28  1  0  0  0  0
 29 30  2  0  0  0  0
 29 34  1  0  0  0  0
 30 31  1  0  0  0  0
 31 32  2  0  0  0  0
 32 33  1  0  0  0  0
 32 35  1  0  0  0  0
 33 34  2  0  0  0  0
 35 36  1  0  0  0  0
 35 37  1  0  0  0  0
M  END
$$$$

 OpenBabel12191814062D

 30 31  0  0  0  0  0  0  0  0999 V2000
    4.1763   -0.8546    0.0000 C   0  0  0  0  0  0  0  0  0  0  0  0
    5.0013   -0.8546    0.0000 O   0  0  0  0  0  0  0  0  0  0  0  0
    5.4138   -1.5691    0.0000 C   0  0  0  0  0  0  0  0  0  0  0  0
    6.2388   -1.5691    0.0000 O   0  0  0  0  0  0  0  0  0  0  0  0
    6.6513   -2.2836    0.0000 C   0  0  3  0  0  0  0  0  0  0  0  0
    6.2388   -2.9980    0.0000 C   0  0  0  0  0  0  0  0  0  0  0  0
    5.4138   -2.9980    0.0000 C   0  0  0  0  0  0  0  0  0  0  0  0
    5.0013   -2.2836    0.0000 O   0  0  0  0  0  0  0  0  0  0  0  0
    5.0013   -3.7125    0.0000 O   0  0  0  0  0  0  0  0  0  0  0  0
    5.4138   -4.4270    0.0000 C   0  0  0  0  0  0  0  0  0  0  0  0
    7.4763   -2.2836    0.0000 C   0  0  3  0  0  0  0  0  0  0  0  0
    7.8888   -1.5691    0.0000 C   0  0  0  0  0  0  0  0  0  0  0  0
    7.4763   -0.8546    0.0000 C   0  0  0  0  0  0  0  0  0  0  0  0
    6.6513   -0.8546    0.0000 C   0  0  0  0  0  0  0  0  0  0  0  0
    6.2388   -0.1401    0.0000 C   0  0  0  0  0  0  0  0  0  0  0  0
    6.6513    0.5743    0.0000 C   0  0  0  0  0  0  0  0  0  0  0  0
    7.4763    0.5743    0.0000 C   0  0  0  0  0  0  0  0  0  0  0  0
    7.8888   -0.1401    0.0000 C   0  0  0  0  0  0  0  0  0  0  0  0
    7.8888   -2.9980    0.0000 N   0  0  0  0  0  0  0  0  0  0  0  0
    7.4763   -3.7125    0.0000 C   0  0  0  0  0  0  0  0  0  0  0  0
    8.7138   -2.9980    0.0000 C   0  0  0  0  0  0  0  0  0  0  0  0
    9.1263   -2.2836    0.0000 O   0  0  0  0  0  0  0  0  0  0  0  0
    9.1263   -3.7125    0.0000 O   0  0  0  0  0  0  0  0  0  0  0  0
    9.9513   -3.7125    0.0000 C   0  0  0  0  0  0  0  0  0  0  0  0
   10.3638   -4.4270    0.0000 C   0  0  0  0  0  0  0  0  0  0  0  0
   11.1888   -4.4270    0.0000 C   0  0  0  0  0  0  0  0  0  0  0  0
   11.6013   -5.1414    0.0000 C   0  0  0  0  0  0  0  0  0  0  0  0
   11.1888   -5.8559    0.0000 C   0  0  0  0  0  0  0  0  0  0  0  0
   10.3638   -5.8559    0.0000 C   0  0  0  0  0  0  0  0  0  0  0  0
    9.9513   -5.1414    0.0000 C   0  0  0  0  0  0  0  0  0  0  0  0
  1  2  1  0  0  0  0
  2  3  1  0  0  0  0
  3  4  1  0  0  0  0
  4  5  1  0  0  0  0
  5  6  1  0  0  0  0
  5 11  1  0  0  0  0
  6  7  1  0  0  0  0
  7  8  2  0  0  0  0
  7  9  1  0  0  0  0
  9 10  1  0  0  0  0
 11 12  1  0  0  0  0
 11 19  1  0  0  0  0
 12 13  1  0  0  0  0
 13 14  2  0  0  0  0
 13 18  1  0  0  0  0
 14 15  1  0  0  0  0
 15 16  2  0  0  0  0
 16 17  1  0  0  0  0
 17 18  2  0  0  0  0
 19 20  1  0  0  0  0
 19 21  1  0  0  0  0
 21 22  2  0  0  0  0
 21 23  1  0  0  0  0
 23 24  1  0  0  0  0
 24 25  1  0  0  0  0
 25 26  2  0  0  0  0
 25 30  1  0  0  0  0
 26 27  1  0  0  0  0
 27 28  2  0  0  0  0
 28 29  1  0  0  0  0
 29 30  2  0  0  0  0
M  END
$$$$

 OpenBabel12191814062D

 32 33  0  0  0  0  0  0  0  0999 V2000
   -1.4289    0.8250    0.0000 C   0  0  0  0  0  0  0  0  0  0  0  0
   -0.7145    0.4125    0.0000 O   0  0  0  0  0  0  0  0  0  0  0  0
   -0.7145   -0.4125    0.0000 C   0  0  0  0  0  0  0  0  0  0  0  0
   -0.0000   -0.8250    0.0000 O   0  0  0  0  0  0  0  0  0  0  0  0
    0.7145   -0.4125    0.0000 C   0  0  3  0  0  0  0  0  0  0  0  0
   -0.0000    0.0000    0.0000 C   0  0  0  0  0  0  0  0  0  0  0  0
   -0.0000    0.8250    0.0000 C   0  0  0  0  0  0  0  0  0  0  0  0
   -0.7145    1.2375    0.0000 O   0  0  0  0  0  0  0  0  0  0  0  0
    0.7145    1.2375    0.0000 O   0  0  0  0  0  0  0  0  0  0  0  0
    1.4289    0.8250    0.0000 C   0  0  3  0  0  0  0  0  0  0  0  0
    1.4289    0.0000    0.0000 C   0  0  0  0  0  0  0  0  0  0  0  0
    2.1434    1.2375    0.0000 C   0  0  3  0  0  0  0  0  0  0  0  0
    2.1434    2.0625    0.0000 C   0  0  0  0  0  0  0  0  0  0  0  0
    2.8579    0.8250    0.0000 C   0  0  0  0  0  0  0  0  0  0  0  0
    3.5724    1.2375    0.0000 O   0  0  0  0  0  0  0  0  0  0  0  0
    2.8579    0.0000    0.0000 O   0  0  0  0  0  0  0  0  0  0  0  0
    2.1434   -0.4125    0.0000 C   0  0  3  0  0  0  0  0  0  0  0  0
    2.8579   -0.8250    0.0000 C   0  0  0  0  0  0  0  0  0  0  0  0
    2.8579   -1.6500    0.0000 C   0  0  0  0  0  0  0  0  0  0  0  0
    3.5724   -0.4125    0.0000 C   0  0  0  0  0  0  0  0  0  0  0  0
    2.1434   -1.2375    0.0000 C   0  0  0  0  0  0  0  0  0  0  0  0
    2.4790   -1.9912    0.0000 O   0  0  0  0  0  0  0  0  0  0  0  0
    1.4289   -1.6500    0.0000 N   0  0  0  0  0  0  0  0  0  0  0  0
    1.4289   -2.4750    0.0000 C   0  0  0  0  0  0  0  0  0  0  0  0
    0.7145   -1.2375    0.0000 C   0  0  3  0  0  0  0  0  0  0  0  0
   -0.0000   -1.6500    0.0000 C   0  0  0  0  0  0  0  0  0  0  0  0
   -0.0000   -2.4750    0.0000 C   0  0  0  0  0  0  0  0  0  0  0  0
    0.7145   -2.8875    0.0000 C   0  0  0  0  0  0  0  0  0  0  0  0
    0.7145   -3.7125    0.0000 C   0  0  0  0  0  0  0  0  0  0  0  0
   -0.0000   -4.1250    0.0000 C   0  0  0  0  0  0  0  0  0  0  0  0
   -0.7145   -3.7125    0.0000 C   0  0  0  0  0  0  0  0  0  0  0  0
   -0.7145   -2.8875    0.0000 C   0  0  0  0  0  0  0  0  0  0  0  0
  1  2  1  0  0  0  0
  2  3  1  0  0  0  0
  3  4  1  0  0  0  0
  4  5  1  0  0  0  0
  5  6  1  0  0  0  0
  5 25  1  0  0  0  0
  6  7  1  0  0  0  0
  7  8  2  0  0  0  0
  7  9  1  0  0  0  0
  9 10  1  0  0  0  0
 10 11  1  0  0  0  0
 10 12  1  0  0  0  0
 12 13  1  0  0  0  0
 12 14  1  0  0  0  0
 14 15  2  0  0  0  0
 14 16  1  0  0  0  0
 16 17  1  0  0  0  0
 17 18  1  0  0  0  0
 17 21  1  0  0  0  0
 18 19  1  0  0  0  0
 18 20  1  0  0  0  0
 21 22  2  0  0  0  0
 21 23  1  0  0  0  0
 23 24  1  0  0  0  0
 23 25  1  0  0  0  0
 25 26  1  0  0  0  0
 26 27  1  0  0  0  0
 27 28  2  0  0  0  0
 27 32  1  0  0  0  0
 28 29  1  0  0  0  0
 29 30  2  0  0  0  0
 30 31  1  0  0  0  0
 31 32  2  0  0  0  0
M  END
$$$$

 OpenBabel12191814062D

 31 32  0  0  0  0  0  0  0  0999 V2000
   -1.4289    0.8250    0.0000 C   0  0  0  0  0  0  0  0  0  0  0  0
   -0.7145    0.4125    0.0000 O   0  0  0  0  0  0  0  0  0  0  0  0
   -0.7145   -0.4125    0.0000 C   0  0  0  0  0  0  0  0  0  0  0  0
   -0.0000   -0.8250    0.0000 O   0  0  0  0  0  0  0  0  0  0  0  0
    0.7145   -0.4125    0.0000 C   0  0  3  0  0  0  0  0  0  0  0  0
   -0.0000    0.0000    0.0000 C   0  0  0  0  0  0  0  0  0  0  0  0
   -0.0000    0.8250    0.0000 C   0  0  0  0  0  0  0  0  0  0  0  0
   -0.7145    1.2375    0.0000 O   0  0  0  0  0  0  0  0  0  0  0  0
    0.7145    1.2375    0.0000 O   0  0  0  0  0  0  0  0  0  0  0  0
    1.4289    0.8250    0.0000 C   0  0  0  0  0  0  0  0  0  0  0  0
    2.1434    1.2375    0.0000 C   0  0  3  0  0  0  0  0  0  0  0  0
    2.1434    2.0625    0.0000 C   0  0  0  0  0  0  0  0  0  0  0  0
    2.8579    0.8250    0.0000 C   0  0  0  0  0  0  0  0  0  0  0  0
    3.5724    1.2375    0.0000 O   0  0  0  0  0  0  0  0  0  0  0  0
    2.8579    0.0000    0.0000 O   0  0  0  0  0  0  0  0  0  0  0  0
    2.1434   -0.4125    0.0000 C   0  0  3  0  0  0  0  0  0  0  0  0
    2.8579   -0.8250    0.0000 C   0  0  0  0  0  0  0  0  0  0  0  0
    2.8579   -1.6500    0.0000 C   0  0  0  0  0  0  0  0  0  0  0  0
    3.5724   -0.4125    0.0000 C   0  0  0  0  0  0  0  0  0  0  0  0
    2.1434   -1.2375    0.0000 C   0  0  0  0  0  0  0  0  0  0  0  0
    2.4790   -1.9912    0.0000 O   0  0  0  0  0  0  0  0  0  0  0  0
    1.4289   -1.6500    0.0000 N   0  0  0  0  0  0  0  0  0  0  0  0
    1.4289   -2.4750    0.0000 C   0  0  0  0  0  0  0  0  0  0  0  0
    0.7145   -1.2375    0.0000 C   0  0  3  0  0  0  0  0  0  0  0  0
   -0.0000   -1.6500    0.0000 C   0  0  0  0  0  0  0  0  0  0  0  0
   -0.0000   -2.4750    0.0000 C   0  0  0  0  0  0  0  0  0  0  0  0
    0.7145   -2.8875    0.0000 C   0  0  0  0  0  0  0  0  0  0  0  0
    0.7145   -3.7125    0.0000 C   0  0  0  0  0  0  0  0  0  0  0  0
   -0.0000   -4.1250    0.0000 C   0  0  0  0  0  0  0  0  0  0  0  0
   -0.7145   -3.7125    0.0000 C   0  0  0  0  0  0  0  0  0  0  0  0
   -0.7145   -2.8875    0.0000 C   0  0  0  0  0  0  0  0  0  0  0  0
  1  2  1  0  0  0  0
  2  3  1  0  0  0  0
  3  4  1  0  0  0  0
  4  5  1  0  0  0  0
  5  6  1  0  0  0  0
  5 24  1  0  0  0  0
  6  7  1  0  0  0  0
  7  8  2  0  0  0  0
  7  9  1  0  0  0  0
  9 10  1  0  0  0  0
 10 11  1  0  0  0  0
 11 12  1  0  0  0  0
 11 13  1  0  0  0  0
 13 14  2  0  0  0  0
 13 15  1  0  0  0  0
 15 16  1  0  0  0  0
 16 17  1  0  0  0  0
 16 20  1  0  0  0  0
 17 18  1  0  0  0  0
 17 19  1  0  0  0  0
 20 21  2  0  0  0  0
 20 22  1  0  0  0  0
 22 23  1  0  0  0  0
 22 24  1  0  0  0  0
 24 25  1  0  0  0  0
 25 26  1  0  0  0  0
 26 27  2  0  0  0  0
 26 31  1  0  0  0  0
 27 28  1  0  0  0  0
 28 29  2  0  0  0  0
 29 30  1  0  0  0  0
 30 31  2  0  0  0  0
M  END
$$$$

 OpenBabel12191814062D

 16 16  0  0  0  0  0  0  0  0999 V2000
   -0.7145    3.7125    0.0000 C   0  0  0  0  0  0  0  0  0  0  0  0
   -0.7145    2.8875    0.0000 O   0  0  0  0  0  0  0  0  0  0  0  0
    0.0000    2.4750    0.0000 P   0  0  0  0  0  0  0  0  0  0  0  0
   -0.4125    1.7605    0.0000 S   0  0  0  0  0  0  0  0  0  0  0  0
    0.4125    3.1895    0.0000 O   0  0  0  0  0  0  0  0  0  0  0  0
    1.2375    3.1895    0.0000 C   0  0  0  0  0  0  0  0  0  0  0  0
    0.7145    2.0625    0.0000 O   0  0  0  0  0  0  0  0  0  0  0  0
    0.7145    1.2375    0.0000 C   0  0  0  0  0  0  0  0  0  0  0  0
    1.4289    0.8250    0.0000 C   0  0  0  0  0  0  0  0  0  0  0  0
    1.4289   -0.0000    0.0000 C   0  0  0  0  0  0  0  0  0  0  0  0
    0.7145   -0.4125    0.0000 C   0  0  0  0  0  0  0  0  0  0  0  0
    0.0000    0.0000    0.0000 C   0  0  0  0  0  0  0  0  0  0  0  0
    0.0000    0.8250    0.0000 C   0  0  0  0  0  0  0  0  0  0  0  0
    0.7145   -1.2375    0.0000 N   0  3  0  0  0  0  0  0  0  0  0  0
    1.4289   -1.6500    0.0000 O   0  5  0  0  0  0  0  0  0  0  0  0
   -0.0000   -1.6500    0.0000 O   0  0  0  0  0  0  0  0  0  0  0  0
  1  2  1  0  0  0  0
  2  3  1  0  0  0  0
  3  4  2  0  0  0  0
  3  5  1  0  0  0  0
  3  7  1  0  0  0  0
  5  6  1  0  0  0  0
  7  8  1  0  0  0  0
  8  9  2  0  0  0  0
  8 13  1  0  0  0  0
  9 10  1  0  0  0  0
 10 11  2  0  0  0  0
 11 12  1  0  0  0  0
 11 14  1  0  0  0  0
 12 13  2  0  0  0  0
 14 15  1  0  0  0  0
 14 16  2  0  0  0  0
M  CHG  2  14   1  15  -1
M  END
$$$$

 OpenBabel12191814062D

 17 17  0  0  0  0  0  0  0  0999 V2000
   -0.7145    3.7125    0.0000 C   0  0  0  0  0  0  0  0  0  0  0  0
   -0.7145    2.8875    0.0000 O   0  0  0  0  0  0  0  0  0  0  0  0
    0.0000    2.4750    0.0000 P   0  0  0  0  0  0  0  0  0  0  0  0
   -0.4125    1.7605    0.0000 S   0  0  0  0  0  0  0  0  0  0  0  0
    0.4125    3.1895    0.0000 O   0  0  0  0  0  0  0  0  0  0  0  0
    1.2375    3.1895    0.0000 C   0  0  0  0  0  0  0  0  0  0  0  0
    0.7145    2.0625    0.0000 O   0  0  0  0  0  0  0  0  0  0  0  0
    0.7145    1.2375    0.0000 C   0  0  0  0  0  0  0  0  0  0  0  0
    1.4289    0.8250    0.0000 C   0  0  0  0  0  0  0  0  0  0  0  0
    1.4289   -0.0000    0.0000 C   0  0  0  0  0  0  0  0  0  0  0  0
    0.7145   -0.4125    0.0000 C   0  0  0  0  0  0  0  0  0  0  0  0
    0.0000    0.0000    0.0000 C   0  0  0  0  0  0  0  0  0  0  0  0
    0.0000    0.8250    0.0000 C   0  0  0  0  0  0  0  0  0  0  0  0
   -0.7145    1.2375    0.0000 Cl  0  0  0  0  0  0  0  0  0  0  0  0
    0.7145   -1.2375    0.0000 N   0  3  0  0  0  0  0  0  0  0  0  0
    1.4289   -1.6500    0.0000 O   0  5  0  0  0  0  0  0  0  0  0  0
   -0.0000   -1.6500    0.0000 O   0  0  0  0  0  0  0  0  0  0  0  0
  1  2  1  0  0  0  0
  2  3  1  0  0  0  0
  3  4  2  0  0  0  0
  3  5  1  0  0  0  0
  3  7  1  0  0  0  0
  5  6  1  0  0  0  0
  7  8  1  0  0  0  0
  8  9  2  0  0  0  0
  8 13  1  0  0  0  0
  9 10  1  0  0  0  0
 10 11  2  0  0  0  0
 11 12  1  0  0  0  0
 11 15  1  0  0  0  0
 12 13  2  0  0  0  0
 13 14  1  0  0  0  0
 15 16  1  0  0  0  0
 15 17  2  0  0  0  0
M  CHG  2  15   1  16  -1
M  END
$$$$

 OpenBabel12191814062D

 25 28  0  0  0  0  0  0  0  0999 V2000
    0.0000   -2.4750    0.0000 C   0  0  0  0  0  0  0  0  0  0  0  0
    0.7145   -2.8875    0.0000 S   0  0  0  0  0  0  0  0  0  0  0  0
    1.4289   -2.4750    0.0000 C   0  0  0  0  0  0  0  0  0  0  0  0
    1.4289   -1.6500    0.0000 C   0  0  0  0  0  0  0  0  0  0  0  0
    2.1434   -1.2375    0.0000 C   0  0  0  0  0  0  0  0  0  0  0  0
    2.8579   -1.6500    0.0000 C   0  0  0  0  0  0  0  0  0  0  0  0
    3.5724   -1.2375    0.0000 S   0  0  0  0  0  0  0  0  0  0  0  0
    4.2868   -1.6500    0.0000 C   0  0  0  0  0  0  0  0  0  0  0  0
    5.0013   -1.2375    0.0000 C   0  0  0  0  0  0  0  0  0  0  0  0
    5.7158   -1.6500    0.0000 C   0  0  0  0  0  0  0  0  0  0  0  0
    5.7158   -2.4750    0.0000 C   0  0  0  0  0  0  0  0  0  0  0  0
    5.0013   -2.8875    0.0000 C   0  0  0  0  0  0  0  0  0  0  0  0
    4.2868   -2.4750    0.0000 C   0  0  0  0  0  0  0  0  0  0  0  0
    3.5724   -2.8875    0.0000 N   0  0  0  0  0  0  0  0  0  0  0  0
    3.5724   -3.7125    0.0000 C   0  0  0  0  0  0  0  0  0  0  0  0
    4.2868   -4.1250    0.0000 C   0  0  0  0  0  0  0  0  0  0  0  0
    4.2868   -4.9500    0.0000 C   0  0  3  0  0  0  0  0  0  0  0  0
    5.0013   -5.3625    0.0000 C   0  0  0  0  0  0  0  0  0  0  0  0
    5.0013   -6.1875    0.0000 C   0  0  0  0  0  0  0  0  0  0  0  0
    4.2868   -6.6000    0.0000 C   0  0  0  0  0  0  0  0  0  0  0  0
    3.5724   -6.1875    0.0000 C   0  0  0  0  0  0  0  0  0  0  0  0
    3.5724   -5.3625    0.0000 N   0  0  0  0  0  0  0  0  0  0  0  0
    2.8579   -4.9500    0.0000 C   0  0  0  0  0  0  0  0  0  0  0  0
    2.8579   -2.4750    0.0000 C   0  0  0  0  0  0  0  0  0  0  0  0
    2.1434   -2.8875    0.0000 C   0  0  0  0  0  0  0  0  0  0  0  0
  1  2  1  0  0  0  0
  2  3  1  0  0  0  0
  3  4  2  0  0  0  0
  3 25  1  0  0  0  0
  4  5  1  0  0  0  0
  5  6  2  0  0  0  0
  6  7  1  0  0  0  0
  6 24  1  0  0  0  0
  7  8  1  0  0  0  0
  8  9  2  0  0  0  0
  8 13  1  0  0  0  0
  9 10  1  0  0  0  0
 10 11  2  0  0  0  0
 11 12  1  0  0  0  0
 12 13  2  0  0  0  0
 13 14  1  0  0  0  0
 14 15  1  0  0  0  0
 14 24  1  0  0  0  0
 15 16  1  0  0  0  0
 16 17  1  0  0  0  0
 17 18  1  0  0  0  0
 17 22  1  0  0  0  0
 18 19  1  0  0  0  0
 19 20  1  0  0  0  0
 20 21  1  0  0  0  0
 21 22  1  0  0  0  0
 22 23  1  0  0  0  0
 24 25  2  0  0  0  0
M  END
$$$$

 OpenBabel12191814062D

 26 28  0  0  0  0  0  0  0  0999 V2000
    2.6580    4.6190    0.0000 C   0  0  0  0  0  0  0  0  0  0  0  0
    2.1933    5.3006    0.0000 S   0  0  0  0  0  0  0  0  0  0  0  0
    1.3706    5.2389    0.0000 C   0  0  3  0  0  0  0  0  0  0  0  0
    1.0692    4.4710    0.0000 N   0  0  0  0  0  0  0  0  0  0  0  0
    0.2809    4.2278    0.0000 C   0  0  0  0  0  0  0  0  0  0  0  0
    0.1579    3.4120    0.0000 O   0  0  0  0  0  0  0  0  0  0  0  0
   -0.4008    4.6925    0.0000 N   0  0  0  0  0  0  0  0  0  0  0  0
   -1.1153    4.2800    0.0000 C   0  0  0  0  0  0  0  0  0  0  0  0
   -1.1153    3.4550    0.0000 C   0  0  0  0  0  0  0  0  0  0  0  0
   -0.4008    3.0425    0.0000 C   0  0  0  0  0  0  0  0  0  0  0  0
   -0.4008    2.2175    0.0000 C   0  0  0  0  0  0  0  0  0  0  0  0
   -1.1153    1.8050    0.0000 C   0  0  0  0  0  0  0  0  0  0  0  0
   -1.1153    0.9800    0.0000 Cl  0  0  0  0  0  0  0  0  0  0  0  0
   -1.8297    2.2175    0.0000 C   0  0  0  0  0  0  0  0  0  0  0  0
   -1.8297    3.0425    0.0000 C   0  0  0  0  0  0  0  0  0  0  0  0
   -0.4624    5.5152    0.0000 C   0  0  0  0  0  0  0  0  0  0  0  0
    0.1423    6.0764    0.0000 C   0  0  0  0  0  0  0  0  0  0  0  0
    0.9581    5.9534    0.0000 N   0  0  0  0  0  0  0  0  0  0  0  0
    1.4228    6.6351    0.0000 C   0  0  0  0  0  0  0  0  0  0  0  0
    2.2455    6.5734    0.0000 C   0  0  0  0  0  0  0  0  0  0  0  0
    2.7103    7.2551    0.0000 C   0  0  0  0  0  0  0  0  0  0  0  0
    3.5330    7.1934    0.0000 C   0  0  0  0  0  0  0  0  0  0  0  0
    3.8909    6.4501    0.0000 C   0  0  0  0  0  0  0  0  0  0  0  0
    4.7136    6.3885    0.0000 Cl  0  0  0  0  0  0  0  0  0  0  0  0
    3.4262    5.7685    0.0000 C   0  0  0  0  0  0  0  0  0  0  0  0
    2.6035    5.8301    0.0000 C   0  0  0  0  0  0  0  0  0  0  0  0
  1  2  1  0  0  0  0
  2  3  1  0  0  0  0
  3  4  1  0  0  0  0
  3 18  1  0  0  0  0
  4  5  1  0  0  0  0
  5  6  2  0  0  0  0
  5  7  1  0  0  0  0
  7  8  1  0  0  0  0
  7 16  1  0  0  0  0
  8  9  1  0  0  0  0
  9 10  2  0  0  0  0
  9 15  1  0  0  0  0
 10 11  1  0  0  0  0
 11 12  2  0  0  0  0
 12 13  1  0  0  0  0
 12 14  1  0  0  0  0
 14 15  2  0  0  0  0
 16 17  1  0  0  0  0
 17 18  1  0  0  0  0
 18 19  1  0  0  0  0
 19 20  1  0  0  0  0
 20 21  2  0  0  0  0
 20 26  1  0  0  0  0
 21 22  1  0  0  0  0
 22 23  2  0  0  0  0
 23 24  1  0  0  0  0
 23 25  1  0  0  0  0
 25 26  2  0  0  0  0
M  END
$$$$

 OpenBabel12191814062D

 26 28  0  0  0  0  0  0  0  0999 V2000
    2.6580    4.6190    0.0000 C   0  0  0  0  0  0  0  0  0  0  0  0
    2.1933    5.3006    0.0000 S   0  0  0  0  0  0  0  0  0  0  0  0
    1.3706    5.2389    0.0000 C   0  0  3  0  0  0  0  0  0  0  0  0
    1.0692    4.4710    0.0000 N   0  0  0  0  0  0  0  0  0  0  0  0
    0.2809    4.2278    0.0000 C   0  0  0  0  0  0  0  0  0  0  0  0
    0.1579    3.4120    0.0000 O   0  0  0  0  0  0  0  0  0  0  0  0
   -0.4008    4.6925    0.0000 N   0  0  0  0  0  0  0  0  0  0  0  0
   -1.1153    4.2800    0.0000 C   0  0  0  0  0  0  0  0  0  0  0  0
   -1.1153    3.4550    0.0000 C   0  0  0  0  0  0  0  0  0  0  0  0
   -0.4008    3.0425    0.0000 C   0  0  0  0  0  0  0  0  0  0  0  0
   -0.4008    2.2175    0.0000 C   0  0  0  0  0  0  0  0  0  0  0  0
   -1.1153    1.8050    0.0000 C   0  0  0  0  0  0  0  0  0  0  0  0
   -1.8297    2.2175    0.0000 C   0  0  0  0  0  0  0  0  0  0  0  0
   -2.5442    1.8050    0.0000 Cl  0  0  0  0  0  0  0  0  0  0  0  0
   -1.8297    3.0425    0.0000 C   0  0  0  0  0  0  0  0  0  0  0  0
   -0.4624    5.5152    0.0000 C   0  0  0  0  0  0  0  0  0  0  0  0
    0.1423    6.0764    0.0000 C   0  0  0  0  0  0  0  0  0  0  0  0
    0.9581    5.9534    0.0000 N   0  0  0  0  0  0  0  0  0  0  0  0
    1.4228    6.6351    0.0000 C   0  0  0  0  0  0  0  0  0  0  0  0
    2.2455    6.5734    0.0000 C   0  0  0  0  0  0  0  0  0  0  0  0
    2.7103    7.2551    0.0000 C   0  0  0  0  0  0  0  0  0  0  0  0
    3.5330    7.1934    0.0000 C   0  0  0  0  0  0  0  0  0  0  0  0
    3.8909    6.4501    0.0000 C   0  0  0  0  0  0  0  0  0  0  0  0
    3.4262    5.7685    0.0000 C   0  0  0  0  0  0  0  0  0  0  0  0
    3.7841    5.0252    0.0000 Cl  0  0  0  0  0  0  0  0  0  0  0  0
    2.6035    5.8301    0.0000 C   0  0  0  0  0  0  0  0  0  0  0  0
  1  2  1  0  0  0  0
  2  3  1  0  0  0  0
  3  4  1  0  0  0  0
  3 18  1  0  0  0  0
  4  5  1  0  0  0  0
  5  6  2  0  0  0  0
  5  7  1  0  0  0  0
  7  8  1  0  0  0  0
  7 16  1  0  0  0  0
  8  9  1  0  0  0  0
  9 10  2  0  0  0  0
  9 15  1  0  0  0  0
 10 11  1  0  0  0  0
 11 12  2  0  0  0  0
 12 13  1  0  0  0  0
 13 14  1  0  0  0  0
 13 15  2  0  0  0  0
 16 17  1  0  0  0  0
 17 18  1  0  0  0  0
 18 19  1  0  0  0  0
 19 20  1  0  0  0  0
 20 21  2  0  0  0  0
 20 26  1  0  0  0  0
 21 22  1  0  0  0  0
 22 23  2  0  0  0  0
 23 24  1  0  0  0  0
 24 25  1  0  0  0  0
 24 26  2  0  0  0  0
M  END
$$$$

 OpenBabel12191814062D

 31 35  0  0  0  0  0  0  0  0999 V2000
    0.0000   -3.3000    0.0000 F   0  0  0  0  0  0  0  0  0  0  0  0
    0.7145   -2.8875    0.0000 C   0  0  0  0  0  0  0  0  0  0  0  0
    1.1270   -3.6020    0.0000 F   0  0  0  0  0  0  0  0  0  0  0  0
    0.3020   -2.1730    0.0000 F   0  0  0  0  0  0  0  0  0  0  0  0
    1.4289   -2.4750    0.0000 C   0  0  0  0  0  0  0  0  0  0  0  0
    1.4289   -1.6500    0.0000 C   0  0  0  0  0  0  0  0  0  0  0  0
    2.1434   -1.2375    0.0000 C   0  0  0  0  0  0  0  0  0  0  0  0
    2.8579   -1.6500    0.0000 C   0  0  0  0  0  0  0  0  0  0  0  0
    3.5724   -1.2375    0.0000 S   0  0  0  0  0  0  0  0  0  0  0  0
    4.2868   -1.6500    0.0000 C   0  0  0  0  0  0  0  0  0  0  0  0
    5.0013   -1.2375    0.0000 C   0  0  0  0  0  0  0  0  0  0  0  0
    5.7158   -1.6500    0.0000 C   0  0  0  0  0  0  0  0  0  0  0  0
    5.7158   -2.4750    0.0000 C   0  0  0  0  0  0  0  0  0  0  0  0
    5.0013   -2.8875    0.0000 C   0  0  0  0  0  0  0  0  0  0  0  0
    4.2868   -2.4750    0.0000 C   0  0  0  0  0  0  0  0  0  0  0  0
    3.5724   -2.8875    0.0000 N   0  0  0  0  0  0  0  0  0  0  0  0
    3.5724   -3.7125    0.0000 C   0  0  0  0  0  0  0  0  0  0  0  0
    4.2868   -4.1250    0.0000 C   0  0  0  0  0  0  0  0  0  0  0  0
    4.2868   -4.9500    0.0000 C   0  0  0  0  0  0  0  0  0  0  0  0
    5.0013   -5.3625    0.0000 N   0  0  0  0  0  0  0  0  0  0  0  0
    5.6829   -4.8978    0.0000 C   0  0  0  0  0  0  0  0  0  0  0  0
    6.4713   -5.1409    0.0000 C   0  0  0  0  0  0  0  0  0  0  0  0
    6.7727   -5.9089    0.0000 C   0  0  0  0  0  0  0  0  0  0  0  0
    6.3602   -6.6234    0.0000 N   0  0  3  0  0  0  0  0  0  0  0  0
    5.5444   -6.7463    0.0000 C   0  0  0  0  0  0  0  0  0  0  0  0
    4.9396   -6.1852    0.0000 C   0  0  0  0  0  0  0  0  0  0  0  0
    6.8249   -7.3050    0.0000 C   0  0  0  0  0  0  0  0  0  0  0  0
    7.5682   -7.6630    0.0000 C   0  0  0  0  0  0  0  0  0  0  0  0
    6.8866   -8.1277    0.0000 C   0  0  0  0  0  0  0  0  0  0  0  0
    2.8579   -2.4750    0.0000 C   0  0  0  0  0  0  0  0  0  0  0  0
    2.1434   -2.8875    0.0000 C   0  0  0  0  0  0  0  0  0  0  0  0
  1  2  1  0  0  0  0
  2  3  1  0  0  0  0
  2  4  1  0  0  0  0
  2  5  1  0  0  0  0
  5  6  2  0  0  0  0
  5 31  1  0  0  0  0
  6  7  1  0  0  0  0
  7  8  2  0  0  0  0
  8  9  1  0  0  0  0
  8 30  1  0  0  0  0
  9 10  1  0  0  0  0
 10 11  2  0  0  0  0
 10 15  1  0  0  0  0
 11 12  1  0  0  0  0
 12 13  2  0  0  0  0
 13 14  1  0  0  0  0
 14 15  2  0  0  0  0
 15 16  1  0  0  0  0
 16 17  1  0  0  0  0
 16 30  1  0  0  0  0
 17 18  1  0  0  0  0
 18 19  1  0  0  0  0
 19 20  1  0  0  0  0
 20 21  1  0  0  0  0
 20 26  1  0  0  0  0
 21 22  1  0  0  0  0
 22 23  1  0  0  0  0
 23 24  1  0  0  0  0
 24 25  1  0  0  0  0
 24 27  1  0  0  0  0
 25 26  1  0  0  0  0
 27 28  1  0  0  0  0
 27 29  1  0  0  0  0
 28 29  1  0  0  0  0
 30 31  2  0  0  0  0
M  END
$$$$

 OpenBabel12191814062D

 30 34  0  0  0  0  0  0  0  0999 V2000
    0.0000   -3.3000    0.0000 F   0  0  0  0  0  0  0  0  0  0  0  0
    0.7145   -2.8875    0.0000 C   0  0  0  0  0  0  0  0  0  0  0  0
    1.1270   -3.6020    0.0000 F   0  0  0  0  0  0  0  0  0  0  0  0
    0.3020   -2.1730    0.0000 F   0  0  0  0  0  0  0  0  0  0  0  0
    1.4289   -2.4750    0.0000 C   0  0  0  0  0  0  0  0  0  0  0  0
    1.4289   -1.6500    0.0000 C   0  0  0  0  0  0  0  0  0  0  0  0
    2.1434   -1.2375    0.0000 C   0  0  0  0  0  0  0  0  0  0  0  0
    2.8579   -1.6500    0.0000 C   0  0  0  0  0  0  0  0  0  0  0  0
    3.5724   -1.2375    0.0000 S   0  0  0  0  0  0  0  0  0  0  0  0
    4.2868   -1.6500    0.0000 C   0  0  0  0  0  0  0  0  0  0  0  0
    5.0013   -1.2375    0.0000 C   0  0  0  0  0  0  0  0  0  0  0  0
    5.7158   -1.6500    0.0000 C   0  0  0  0  0  0  0  0  0  0  0  0
    5.7158   -2.4750    0.0000 C   0  0  0  0  0  0  0  0  0  0  0  0
    5.0013   -2.8875    0.0000 C   0  0  0  0  0  0  0  0  0  0  0  0
    4.2868   -2.4750    0.0000 C   0  0  0  0  0  0  0  0  0  0  0  0
    3.5724   -2.8875    0.0000 N   0  0  0  0  0  0  0  0  0  0  0  0
    3.5724   -3.7125    0.0000 C   0  0  0  0  0  0  0  0  0  0  0  0
    2.8579   -4.1250    0.0000 C   0  0  0  0  0  0  0  0  0  0  0  0
    2.8579   -4.9500    0.0000 C   0  0  0  0  0  0  0  0  0  0  0  0
    2.1434   -5.3625    0.0000 N   0  0  0  0  0  0  0  0  0  0  0  0
    2.1434   -6.1875    0.0000 C   0  0  0  0  0  0  0  0  0  0  0  0
    1.4289   -6.6000    0.0000 C   0  0  0  0  0  0  0  0  0  0  0  0
    0.7145   -6.1875    0.0000 N   0  0  0  0  0  0  0  0  0  0  0  0
    0.7145   -5.3625    0.0000 C   0  0  0  0  0  0  0  0  0  0  0  0
    1.4289   -4.9500    0.0000 C   0  0  0  0  0  0  0  0  0  0  0  0
    0.0000   -6.6000    0.0000 C   0  0  0  0  0  0  0  0  0  0  0  0
   -0.4125   -7.3145    0.0000 C   0  0  0  0  0  0  0  0  0  0  0  0
   -0.8250   -6.6000    0.0000 C   0  0  0  0  0  0  0  0  0  0  0  0
    2.8579   -2.4750    0.0000 C   0  0  0  0  0  0  0  0  0  0  0  0
    2.1434   -2.8875    0.0000 C   0  0  0  0  0  0  0  0  0  0  0  0
  1  2  1  0  0  0  0
  2  3  1  0  0  0  0
  2  4  1  0  0  0  0
  2  5  1  0  0  0  0
  5  6  2  0  0  0  0
  5 30  1  0  0  0  0
  6  7  1  0  0  0  0
  7  8  2  0  0  0  0
  8  9  1  0  0  0  0
  8 29  1  0  0  0  0
  9 10  1  0  0  0  0
 10 11  2  0  0  0  0
 10 15  1  0  0  0  0
 11 12  1  0  0  0  0
 12 13  2  0  0  0  0
 13 14  1  0  0  0  0
 14 15  2  0  0  0  0
 15 16  1  0  0  0  0
 16 17  1  0  0  0  0
 16 29  1  0  0  0  0
 17 18  1  0  0  0  0
 18 19  1  0  0  0  0
 19 20  1  0  0  0  0
 20 21  1  0  0  0  0
 20 25  1  0  0  0  0
 21 22  1  0  0  0  0
 22 23  1  0  0  0  0
 23 24  1  0  0  0  0
 23 26  1  0  0  0  0
 24 25  1  0  0  0  0
 26 27  1  0  0  0  0
 26 28  1  0  0  0  0
 27 28  1  0  0  0  0
 29 30  2  0  0  0  0
M  END
$$$$

 OpenBabel12191814062D

 29 32  0  0  0  0  0  0  0  0999 V2000
   -4.4258   -6.9307    0.0000 F   0  0  0  0  0  0  0  0  0  0  0  0
   -4.1708   -6.1461    0.0000 C   0  0  0  0  0  0  0  0  0  0  0  0
   -4.7229   -5.5330    0.0000 C   0  0  0  0  0  0  0  0  0  0  0  0
   -4.4679   -4.7484    0.0000 C   0  0  0  0  0  0  0  0  0  0  0  0
   -3.6610   -4.5769    0.0000 C   0  0  0  0  0  0  0  0  0  0  0  0
   -3.1089   -5.1900    0.0000 C   0  0  0  0  0  0  0  0  0  0  0  0
   -3.3639   -5.9746    0.0000 C   0  0  0  0  0  0  0  0  0  0  0  0
   -3.4060   -3.7923    0.0000 C   0  0  0  0  0  0  0  0  0  0  0  0
   -3.9580   -3.1792    0.0000 O   0  0  0  0  0  0  0  0  0  0  0  0
   -2.5990   -3.6207    0.0000 C   0  0  0  0  0  0  0  0  0  0  0  0
   -2.3441   -2.8361    0.0000 C   0  0  0  0  0  0  0  0  0  0  0  0
   -1.5371   -2.6646    0.0000 C   0  0  0  0  0  0  0  0  0  0  0  0
   -0.9851   -3.2777    0.0000 N   0  0  0  0  0  0  0  0  0  0  0  0
   -0.1781   -3.1062    0.0000 C   0  0  0  0  0  0  0  0  0  0  0  0
    0.0768   -2.3215    0.0000 C   0  0  0  0  0  0  0  0  0  0  0  0
    0.8838   -2.1500    0.0000 C   0  0  0  0  0  0  0  0  0  0  0  0
    1.1387   -1.3654    0.0000 N   0  0  0  0  0  0  0  0  0  0  0  0
    0.6538   -0.6979    0.0000 C   0  0  0  0  0  0  0  0  0  0  0  0
   -0.1712   -0.6979    0.0000 O   0  0  0  0  0  0  0  0  0  0  0  0
    1.1387   -0.0305    0.0000 N   0  0  0  0  0  0  0  0  0  0  0  0
    1.9233   -0.2854    0.0000 C   0  0  0  0  0  0  0  0  0  0  0  0
    2.6378    0.1271    0.0000 C   0  0  0  0  0  0  0  0  0  0  0  0
    3.3523   -0.2854    0.0000 C   0  0  0  0  0  0  0  0  0  0  0  0
    4.0668    0.1271    0.0000 Cl  0  0  0  0  0  0  0  0  0  0  0  0
    3.3523   -1.1104    0.0000 C   0  0  0  0  0  0  0  0  0  0  0  0
    2.6378   -1.5229    0.0000 C   0  0  0  0  0  0  0  0  0  0  0  0
    1.9233   -1.1104    0.0000 C   0  0  0  0  0  0  0  0  0  0  0  0
   -1.2400   -4.0623    0.0000 C   0  0  0  0  0  0  0  0  0  0  0  0
   -2.0470   -4.2338    0.0000 C   0  0  0  0  0  0  0  0  0  0  0  0
  1  2  1  0  0  0  0
  2  3  2  0  0  0  0
  2  7  1  0  0  0  0
  3  4  1  0  0  0  0
  4  5  2  0  0  0  0
  5  6  1  0  0  0  0
  5  8  1  0  0  0  0
  6  7  2  0  0  0  0
  8  9  2  0  0  0  0
  8 10  1  0  0  0  0
 10 11  1  0  0  0  0
 10 29  1  0  0  0  0
 11 12  1  0  0  0  0
 12 13  1  0  0  0  0
 13 14  1  0  0  0  0
 13 28  1  0  0  0  0
 14 15  1  0  0  0  0
 15 16  1  0  0  0  0
 16 17  1  0  0  0  0
 17 18  1  0  0  0  0
 17 27  1  0  0  0  0
 18 19  2  0  0  0  0
 18 20  1  0  0  0  0
 20 21  1  0  0  0  0
 21 22  2  0  0  0  0
 21 27  1  0  0  0  0
 22 23  1  0  0  0  0
 23 24  1  0  0  0  0
 23 25  2  0  0  0  0
 25 26  1  0  0  0  0
 26 27  2  0  0  0  0
 28 29  1  0  0  0  0
M  END
$$$$

 OpenBabel12191814062D

 36 40  0  0  0  0  0  0  0  0999 V2000
    5.7158    8.2500    0.0000 F   0  0  0  0  0  0  0  0  0  0  0  0
    5.7158    7.4250    0.0000 C   0  0  0  0  0  0  0  0  0  0  0  0
    6.4302    7.0125    0.0000 C   0  0  0  0  0  0  0  0  0  0  0  0
    6.4302    6.1875    0.0000 C   0  0  0  0  0  0  0  0  0  0  0  0
    5.7158    5.7750    0.0000 C   0  0  0  0  0  0  0  0  0  0  0  0
    5.0013    6.1875    0.0000 C   0  0  0  0  0  0  0  0  0  0  0  0
    5.0013    7.0125    0.0000 C   0  0  0  0  0  0  0  0  0  0  0  0
    5.7158    4.9500    0.0000 C   0  0  0  0  0  0  0  0  0  0  0  0
    6.4302    4.5375    0.0000 O   0  0  0  0  0  0  0  0  0  0  0  0
    5.0013    4.5375    0.0000 C   0  0  0  0  0  0  0  0  0  0  0  0
    5.0013    3.7125    0.0000 C   0  0  0  0  0  0  0  0  0  0  0  0
    4.2868    3.3000    0.0000 C   0  0  0  0  0  0  0  0  0  0  0  0
    3.5724    3.7125    0.0000 N   0  0  0  0  0  0  0  0  0  0  0  0
    2.8579    3.3000    0.0000 C   0  0  0  0  0  0  0  0  0  0  0  0
    2.8579    2.4750    0.0000 C   0  0  0  0  0  0  0  0  0  0  0  0
    2.1434    2.0625    0.0000 C   0  0  0  0  0  0  0  0  0  0  0  0
    2.1434    1.2375    0.0000 N   0  0  0  0  0  0  0  0  0  0  0  0
    2.8579    0.8250    0.0000 C   0  0  0  0  0  0  0  0  0  0  0  0
    3.5724    1.2375    0.0000 C   0  0  0  0  0  0  0  0  0  0  0  0
    4.2868    0.8250    0.0000 C   0  0  0  0  0  0  0  0  0  0  0  0
    4.2868   -0.0000    0.0000 C   0  0  0  0  0  0  0  0  0  0  0  0
    3.5724   -0.4125    0.0000 C   0  0  0  0  0  0  0  0  0  0  0  0
    2.8579    0.0000    0.0000 C   0  0  0  0  0  0  0  0  0  0  0  0
    2.1434   -0.4125    0.0000 S   0  0  0  0  0  0  0  0  0  0  0  0
    1.4289    0.0000    0.0000 C   0  0  0  0  0  0  0  0  0  0  0  0
    0.7145   -0.4125    0.0000 C   0  0  0  0  0  0  0  0  0  0  0  0
    0.0000    0.0000    0.0000 C   0  0  0  0  0  0  0  0  0  0  0  0
    0.0000    0.8250    0.0000 C   0  0  0  0  0  0  0  0  0  0  0  0
    0.7145    1.2375    0.0000 C   0  0  0  0  0  0  0  0  0  0  0  0
    1.4289    0.8250    0.0000 C   0  0  0  0  0  0  0  0  0  0  0  0
   -0.7145    1.2375    0.0000 C   0  0  0  0  0  0  0  0  0  0  0  0
   -1.4289    1.6500    0.0000 F   0  0  0  0  0  0  0  0  0  0  0  0
   -0.3020    1.9520    0.0000 F   0  0  0  0  0  0  0  0  0  0  0  0
   -1.1270    0.5230    0.0000 F   0  0  0  0  0  0  0  0  0  0  0  0
    3.5724    4.5375    0.0000 C   0  0  0  0  0  0  0  0  0  0  0  0
    4.2868    4.9500    0.0000 C   0  0  0  0  0  0  0  0  0  0  0  0
  1  2  1  0  0  0  0
  2  3  2  0  0  0  0
  2  7  1  0  0  0  0
  3  4  1  0  0  0  0
  4  5  2  0  0  0  0
  5  6  1  0  0  0  0
  5  8  1  0  0  0  0
  6  7  2  0  0  0  0
  8  9  2  0  0  0  0
  8 10  1  0  0  0  0
 10 11  1  0  0  0  0
 10 36  1  0  0  0  0
 11 12  1  0  0  0  0
 12 13  1  0  0  0  0
 13 14  1  0  0  0  0
 13 35  1  0  0  0  0
 14 15  1  0  0  0  0
 15 16  1  0  0  0  0
 16 17  1  0  0  0  0
 17 18  1  0  0  0  0
 17 30  1  0  0  0  0
 18 19  2  0  0  0  0
 18 23  1  0  0  0  0
 19 20  1  0  0  0  0
 20 21  2  0  0  0  0
 21 22  1  0  0  0  0
 22 23  2  0  0  0  0
 23 24  1  0  0  0  0
 24 25  1  0  0  0  0
 25 26  2  0  0  0  0
 25 30  1  0  0  0  0
 26 27  1  0  0  0  0
 27 28  2  0  0  0  0
 28 29  1  0  0  0  0
 28 31  1  0  0  0  0
 29 30  2  0  0  0  0
 31 32  1  0  0  0  0
 31 33  1  0  0  0  0
 31 34  1  0  0  0  0
 35 36  1  0  0  0  0
M  END
$$$$

 OpenBabel12191814062D

 27 29  0  0  0  0  0  0  0  0999 V2000
   -6.4302   -2.8875    0.0000 F   0  0  0  0  0  0  0  0  0  0  0  0
   -5.7158   -3.3000    0.0000 C   0  0  0  0  0  0  0  0  0  0  0  0
   -5.0013   -2.8875    0.0000 C   0  0  0  0  0  0  0  0  0  0  0  0
   -4.2868   -3.3000    0.0000 C   0  0  0  0  0  0  0  0  0  0  0  0
   -4.2868   -4.1250    0.0000 C   0  0  0  0  0  0  0  0  0  0  0  0
   -5.0013   -4.5375    0.0000 C   0  0  0  0  0  0  0  0  0  0  0  0
   -5.7158   -4.1250    0.0000 C   0  0  0  0  0  0  0  0  0  0  0  0
   -3.5724   -4.5375    0.0000 C   0  0  0  0  0  0  0  0  0  0  0  0
   -3.5724   -5.3625    0.0000 O   0  0  0  0  0  0  0  0  0  0  0  0
   -2.8579   -4.1250    0.0000 C   0  0  0  0  0  0  0  0  0  0  0  0
   -2.1434   -4.5375    0.0000 C   0  0  0  0  0  0  0  0  0  0  0  0
   -1.4289   -4.1250    0.0000 C   0  0  0  0  0  0  0  0  0  0  0  0
   -0.7145   -4.5375    0.0000 N   0  0  0  0  0  0  0  0  0  0  0  0
    0.0000   -4.1250    0.0000 C   0  0  0  0  0  0  0  0  0  0  0  0
    0.7145   -4.5375    0.0000 C   0  0  0  0  0  0  0  0  0  0  0  0
    0.7145   -5.3625    0.0000 C   0  0  0  0  0  0  0  0  0  0  0  0
    0.0000   -5.7750    0.0000 C   0  0  0  0  0  0  0  0  0  0  0  0
   -0.7145   -5.3625    0.0000 C   0  0  0  0  0  0  0  0  0  0  0  0
    1.4289   -5.7750    0.0000 C   0  0  0  0  0  0  0  0  0  0  0  0
    1.4289   -6.6000    0.0000 O   0  0  0  0  0  0  0  0  0  0  0  0
    2.1434   -5.3625    0.0000 C   0  0  0  0  0  0  0  0  0  0  0  0
    2.1434   -4.5375    0.0000 C   0  0  0  0  0  0  0  0  0  0  0  0
    2.8579   -4.1250    0.0000 C   0  0  0  0  0  0  0  0  0  0  0  0
    3.5724   -4.5375    0.0000 C   0  0  0  0  0  0  0  0  0  0  0  0
    4.2868   -4.1250    0.0000 F   0  0  0  0  0  0  0  0  0  0  0  0
    3.5724   -5.3625    0.0000 C   0  0  0  0  0  0  0  0  0  0  0  0
    2.8579   -5.7750    0.0000 C   0  0  0  0  0  0  0  0  0  0  0  0
  1  2  1  0  0  0  0
  2  3  2  0  0  0  0
  2  7  1  0  0  0  0
  3  4  1  0  0  0  0
  4  5  2  0  0  0  0
  5  6  1  0  0  0  0
  5  8  1  0  0  0  0
  6  7  2  0  0  0  0
  8  9  2  0  0  0  0
  8 10  1  0  0  0  0
 10 11  1  0  0  0  0
 11 12  1  0  0  0  0
 12 13  1  0  0  0  0
 13 14  1  0  0  0  0
 13 18  1  0  0  0  0
 14 15  1  0  0  0  0
 15 16  1  0  0  0  0
 16 17  1  0  0  0  0
 16 19  1  0  0  0  0
 17 18  1  0  0  0  0
 19 20  2  0  0  0  0
 19 21  1  0  0  0  0
 21 22  2  0  0  0  0
 21 27  1  0  0  0  0
 22 23  1  0  0  0  0
 23 24  2  0  0  0  0
 24 25  1  0  0  0  0
 24 26  1  0  0  0  0
 26 27  2  0  0  0  0
M  END
$$$$

 OpenBabel12191814062D

 29 32  0  0  0  0  0  0  0  0999 V2000
    8.6945    1.8414    0.0000 F   0  0  0  0  0  0  0  0  0  0  0  0
    7.8695    1.8414    0.0000 C   0  0  0  0  0  0  0  0  0  0  0  0
    7.4570    1.1270    0.0000 C   0  0  0  0  0  0  0  0  0  0  0  0
    6.6320    1.1270    0.0000 C   0  0  0  0  0  0  0  0  0  0  0  0
    6.2195    1.8414    0.0000 C   0  0  0  0  0  0  0  0  0  0  0  0
    6.6320    2.5559    0.0000 C   0  0  0  0  0  0  0  0  0  0  0  0
    7.4570    2.5559    0.0000 C   0  0  0  0  0  0  0  0  0  0  0  0
    5.3945    1.8414    0.0000 C   0  0  0  0  0  0  0  0  0  0  0  0
    4.9820    2.5559    0.0000 O   0  0  0  0  0  0  0  0  0  0  0  0
    4.9820    1.1270    0.0000 C   0  0  0  0  0  0  0  0  0  0  0  0
    4.1570    1.1270    0.0000 C   0  0  0  0  0  0  0  0  0  0  0  0
    3.7445    0.4125    0.0000 C   0  0  0  0  0  0  0  0  0  0  0  0
    2.9195    0.4125    0.0000 N   0  0  0  0  0  0  0  0  0  0  0  0
    2.5070   -0.3020    0.0000 C   0  0  0  0  0  0  0  0  0  0  0  0
    1.6820   -0.3020    0.0000 C   0  0  0  0  0  0  0  0  0  0  0  0
    1.2695    0.4125    0.0000 C   0  0  0  0  0  0  0  0  0  0  0  0
    1.6820    1.1270    0.0000 C   0  0  0  0  0  0  0  0  0  0  0  0
    2.5070    1.1270    0.0000 C   0  0  0  0  0  0  0  0  0  0  0  0
    0.7846   -0.2549    0.0000 N   0  0  0  0  0  0  0  0  0  0  0  0
    0.0000   -0.0000    0.0000 C   0  0  0  0  0  0  0  0  0  0  0  0
   -0.0000    0.8250    0.0000 N   0  0  0  0  0  0  0  0  0  0  0  0
    0.7846    1.0799    0.0000 C   0  0  0  0  0  0  0  0  0  0  0  0
    1.0396    1.8646    0.0000 O   0  0  0  0  0  0  0  0  0  0  0  0
    1.0396   -1.0396    0.0000 C   0  0  0  0  0  0  0  0  0  0  0  0
    1.8465   -1.2111    0.0000 C   0  0  0  0  0  0  0  0  0  0  0  0
    2.1015   -1.9957    0.0000 C   0  0  0  0  0  0  0  0  0  0  0  0
    1.5494   -2.6088    0.0000 C   0  0  0  0  0  0  0  0  0  0  0  0
    0.7425   -2.4373    0.0000 C   0  0  0  0  0  0  0  0  0  0  0  0
    0.4875   -1.6527    0.0000 C   0  0  0  0  0  0  0  0  0  0  0  0
  1  2  1  0  0  0  0
  2  3  2  0  0  0  0
  2  7  1  0  0  0  0
  3  4  1  0  0  0  0
  4  5  2  0  0  0  0
  5  6  1  0  0  0  0
  5  8  1  0  0  0  0
  6  7  2  0  0  0  0
  8  9  2  0  0  0  0
  8 10  1  0  0  0  0
 10 11  1  0  0  0  0
 11 12  1  0  0  0  0
 12 13  1  0  0  0  0
 13 14  1  0  0  0  0
 13 18  1  0  0  0  0
 14 15  1  0  0  0  0
 15 16  1  0  0  0  0
 16 17  1  0  0  0  0
 16 19  1  0  0  0  0
 16 22  1  0  0  0  0
 17 18  1  0  0  0  0
 19 20  1  0  0  0  0
 19 24  1  0  0  0  0
 20 21  1  0  0  0  0
 21 22  1  0  0  0  0
 22 23  2  0  0  0  0
 24 25  2  0  0  0  0
 24 29  1  0  0  0  0
 25 26  1  0  0  0  0
 26 27  2  0  0  0  0
 27 28  1  0  0  0  0
 28 29  2  0  0  0  0
M  END
$$$$

 OpenBabel12191814062D

 28 31  0  0  0  0  0  0  0  0999 V2000
   -7.1447    2.4750    0.0000 F   0  0  0  0  0  0  0  0  0  0  0  0
   -6.4302    2.0625    0.0000 C   0  0  0  0  0  0  0  0  0  0  0  0
   -5.7158    2.4750    0.0000 C   0  0  0  0  0  0  0  0  0  0  0  0
   -5.0013    2.0625    0.0000 C   0  0  0  0  0  0  0  0  0  0  0  0
   -5.0013    1.2375    0.0000 C   0  0  0  0  0  0  0  0  0  0  0  0
   -5.7158    0.8250    0.0000 C   0  0  0  0  0  0  0  0  0  0  0  0
   -6.4302    1.2375    0.0000 C   0  0  0  0  0  0  0  0  0  0  0  0
   -4.2868    0.8250    0.0000 C   0  0  0  0  0  0  0  0  0  0  0  0
   -4.2868   -0.0000    0.0000 O   0  0  0  0  0  0  0  0  0  0  0  0
   -3.5724    1.2375    0.0000 C   0  0  0  0  0  0  0  0  0  0  0  0
   -2.8579    0.8250    0.0000 C   0  0  0  0  0  0  0  0  0  0  0  0
   -2.1434    1.2375    0.0000 C   0  0  0  0  0  0  0  0  0  0  0  0
   -1.4289    0.8250    0.0000 N   0  0  0  0  0  0  0  0  0  0  0  0
   -0.7145    1.2375    0.0000 C   0  0  0  0  0  0  0  0  0  0  0  0
    0.0000    0.8250    0.0000 C   0  0  0  0  0  0  0  0  0  0  0  0
    0.0000    0.0000    0.0000 N   0  0  0  0  0  0  0  0  0  0  0  0
   -0.7145   -0.4125    0.0000 C   0  0  0  0  0  0  0  0  0  0  0  0
   -1.4289   -0.0000    0.0000 C   0  0  0  0  0  0  0  0  0  0  0  0
    0.7145   -0.4125    0.0000 C   0  0  0  0  0  0  0  0  0  0  0  0
    1.4289    0.0000    0.0000 C   0  0  0  0  0  0  0  0  0  0  0  0
    2.1434   -0.4125    0.0000 C   0  0  0  0  0  0  0  0  0  0  0  0
    2.8579    0.0000    0.0000 C   0  0  0  0  0  0  0  0  0  0  0  0
    3.5724   -0.4125    0.0000 C   0  0  0  0  0  0  0  0  0  0  0  0
    3.5724   -1.2375    0.0000 C   0  0  0  0  0  0  0  0  0  0  0  0
    2.8579   -1.6500    0.0000 C   0  0  0  0  0  0  0  0  0  0  0  0
    2.1434   -1.2375    0.0000 C   0  0  0  0  0  0  0  0  0  0  0  0
    1.4289   -1.6500    0.0000 C   0  0  0  0  0  0  0  0  0  0  0  0
    0.7145   -1.2375    0.0000 N   0  0  0  0  0  0  0  0  0  0  0  0
  1  2  1  0  0  0  0
  2  3  2  0  0  0  0
  2  7  1  0  0  0  0
  3  4  1  0  0  0  0
  4  5  2  0  0  0  0
  5  6  1  0  0  0  0
  5  8  1  0  0  0  0
  6  7  2  0  0  0  0
  8  9  2  0  0  0  0
  8 10  1  0  0  0  0
 10 11  1  0  0  0  0
 11 12  1  0  0  0  0
 12 13  1  0  0  0  0
 13 14  1  0  0  0  0
 13 18  1  0  0  0  0
 14 15  1  0  0  0  0
 15 16  1  0  0  0  0
 16 17  1  0  0  0  0
 16 19  1  0  0  0  0
 17 18  1  0  0  0  0
 19 20  2  0  0  0  0
 19 28  1  0  0  0  0
 20 21  1  0  0  0  0
 21 22  2  0  0  0  0
 21 26  1  0  0  0  0
 22 23  1  0  0  0  0
 23 24  2  0  0  0  0
 24 25  1  0  0  0  0
 25 26  2  0  0  0  0
 26 27  1  0  0  0  0
 27 28  2  0  0  0  0
M  END
$$$$

 OpenBabel12191814062D

 29 32  0  0  0  0  0  0  0  0999 V2000
   -5.7158   -6.6000    0.0000 F   0  0  0  0  0  0  0  0  0  0  0  0
   -5.0013   -6.1875    0.0000 C   0  0  0  0  0  0  0  0  0  0  0  0
   -5.0013   -5.3625    0.0000 C   0  0  0  0  0  0  0  0  0  0  0  0
   -4.2868   -4.9500    0.0000 C   0  0  0  0  0  0  0  0  0  0  0  0
   -3.5724   -5.3625    0.0000 C   0  0  0  0  0  0  0  0  0  0  0  0
   -3.5724   -6.1875    0.0000 C   0  0  0  0  0  0  0  0  0  0  0  0
   -4.2868   -6.6000    0.0000 C   0  0  0  0  0  0  0  0  0  0  0  0
   -2.8579   -4.9500    0.0000 C   0  0  0  0  0  0  0  0  0  0  0  0
   -2.1434   -5.3625    0.0000 O   0  0  0  0  0  0  0  0  0  0  0  0
   -2.8579   -4.1250    0.0000 C   0  0  0  0  0  0  0  0  0  0  0  0
   -2.1434   -3.7125    0.0000 C   0  0  0  0  0  0  0  0  0  0  0  0
   -2.1434   -2.8875    0.0000 C   0  0  0  0  0  0  0  0  0  0  0  0
   -1.4289   -2.4750    0.0000 N   0  0  0  0  0  0  0  0  0  0  0  0
   -1.4289   -1.6500    0.0000 C   0  0  0  0  0  0  0  0  0  0  0  0
   -0.7145   -1.2375    0.0000 C   0  0  0  0  0  0  0  0  0  0  0  0
    0.0000   -1.6500    0.0000 N   0  0  0  0  0  0  0  0  0  0  0  0
    0.0000   -2.4750    0.0000 C   0  0  0  0  0  0  0  0  0  0  0  0
   -0.7145   -2.8875    0.0000 C   0  0  0  0  0  0  0  0  0  0  0  0
    0.7145   -1.2375    0.0000 C   0  0  0  0  0  0  0  0  0  0  0  0
    0.7145   -0.4125    0.0000 C   0  0  0  0  0  0  0  0  0  0  0  0
    1.4289    0.0000    0.0000 C   0  0  0  0  0  0  0  0  0  0  0  0
    2.1434   -0.4125    0.0000 C   0  0  0  0  0  0  0  0  0  0  0  0
    2.8579    0.0000    0.0000 C   0  0  0  0  0  0  0  0  0  0  0  0
    3.5724   -0.4125    0.0000 N   0  0  0  0  0  0  0  0  0  0  0  0
    3.5724   -1.2375    0.0000 C   0  0  0  0  0  0  0  0  0  0  0  0
    4.2868   -1.6500    0.0000 Cl  0  0  0  0  0  0  0  0  0  0  0  0
    2.8579   -1.6500    0.0000 C   0  0  0  0  0  0  0  0  0  0  0  0
    2.1434   -1.2375    0.0000 C   0  0  0  0  0  0  0  0  0  0  0  0
    1.4289   -1.6500    0.0000 C   0  0  0  0  0  0  0  0  0  0  0  0
  1  2  1  0  0  0  0
  2  3  2  0  0  0  0
  2  7  1  0  0  0  0
  3  4  1  0  0  0  0
  4  5  2  0  0  0  0
  5  6  1  0  0  0  0
  5  8  1  0  0  0  0
  6  7  2  0  0  0  0
  8  9  2  0  0  0  0
  8 10  1  0  0  0  0
 10 11  1  0  0  0  0
 11 12  1  0  0  0  0
 12 13  1  0  0  0  0
 13 14  1  0  0  0  0
 13 18  1  0  0  0  0
 14 15  1  0  0  0  0
 15 16  1  0  0  0  0
 16 17  1  0  0  0  0
 16 19  1  0  0  0  0
 17 18  1  0  0  0  0
 19 20  2  0  0  0  0
 19 29  1  0  0  0  0
 20 21  1  0  0  0  0
 21 22  2  0  0  0  0
 22 23  1  0  0  0  0
 22 28  1  0  0  0  0
 23 24  2  0  0  0  0
 24 25  1  0  0  0  0
 25 26  1  0  0  0  0
 25 27  2  0  0  0  0
 27 28  1  0  0  0  0
 28 29  2  0  0  0  0
M  END
$$$$

 OpenBabel12191814062D

 29 32  0  0  0  0  0  0  0  0999 V2000
   -0.0517   -9.6532    0.0000 F   0  0  0  0  0  0  0  0  0  0  0  0
    0.2033   -8.8685    0.0000 C   0  0  0  0  0  0  0  0  0  0  0  0
   -0.3488   -8.2554    0.0000 C   0  0  0  0  0  0  0  0  0  0  0  0
   -0.0938   -7.4708    0.0000 C   0  0  0  0  0  0  0  0  0  0  0  0
    0.7132   -7.2993    0.0000 C   0  0  0  0  0  0  0  0  0  0  0  0
    1.2652   -7.9124    0.0000 C   0  0  0  0  0  0  0  0  0  0  0  0
    1.0102   -8.6970    0.0000 C   0  0  0  0  0  0  0  0  0  0  0  0
    0.9681   -6.5147    0.0000 C   0  0  0  0  0  0  0  0  0  0  0  0
    1.7751   -6.3432    0.0000 O   0  0  0  0  0  0  0  0  0  0  0  0
    0.4161   -5.9016    0.0000 N   0  0  0  0  0  0  0  0  0  0  0  0
    0.6710   -5.1170    0.0000 C   0  0  0  0  0  0  0  0  0  0  0  0
    0.1190   -4.5039    0.0000 C   0  0  0  0  0  0  0  0  0  0  0  0
    0.3739   -3.7192    0.0000 N   0  0  0  0  0  0  0  0  0  0  0  0
   -0.1781   -3.1062    0.0000 C   0  0  0  0  0  0  0  0  0  0  0  0
    0.0768   -2.3215    0.0000 C   0  0  0  0  0  0  0  0  0  0  0  0
    0.8838   -2.1500    0.0000 C   0  0  0  0  0  0  0  0  0  0  0  0
    1.4358   -2.7631    0.0000 C   0  0  0  0  0  0  0  0  0  0  0  0
    1.1809   -3.5477    0.0000 C   0  0  0  0  0  0  0  0  0  0  0  0
    1.1387   -1.3654    0.0000 N   0  0  0  0  0  0  0  0  0  0  0  0
    0.6538   -0.6979    0.0000 C   0  0  0  0  0  0  0  0  0  0  0  0
   -0.1712   -0.6979    0.0000 O   0  0  0  0  0  0  0  0  0  0  0  0
    1.1387   -0.0305    0.0000 N   0  0  0  0  0  0  0  0  0  0  0  0
    1.9233   -0.2854    0.0000 C   0  0  0  0  0  0  0  0  0  0  0  0
    2.6378    0.1271    0.0000 C   0  0  0  0  0  0  0  0  0  0  0  0
    3.3523   -0.2854    0.0000 C   0  0  0  0  0  0  0  0  0  0  0  0
    4.0668    0.1271    0.0000 Cl  0  0  0  0  0  0  0  0  0  0  0  0
    3.3523   -1.1104    0.0000 C   0  0  0  0  0  0  0  0  0  0  0  0
    2.6378   -1.5229    0.0000 C   0  0  0  0  0  0  0  0  0  0  0  0
    1.9233   -1.1104    0.0000 C   0  0  0  0  0  0  0  0  0  0  0  0
  1  2  1  0  0  0  0
  2  3  2  0  0  0  0
  2  7  1  0  0  0  0
  3  4  1  0  0  0  0
  4  5  2  0  0  0  0
  5  6  1  0  0  0  0
  5  8  1  0  0  0  0
  6  7  2  0  0  0  0
  8  9  2  0  0  0  0
  8 10  1  0  0  0  0
 10 11  1  0  0  0  0
 11 12  1  0  0  0  0
 12 13  1  0  0  0  0
 13 14  1  0  0  0  0
 13 18  1  0  0  0  0
 14 15  1  0  0  0  0
 15 16  1  0  0  0  0
 16 17  1  0  0  0  0
 16 19  1  0  0  0  0
 17 18  1  0  0  0  0
 19 20  1  0  0  0  0
 19 29  1  0  0  0  0
 20 21  2  0  0  0  0
 20 22  1  0  0  0  0
 22 23  1  0  0  0  0
 23 24  2  0  0  0  0
 23 29  1  0  0  0  0
 24 25  1  0  0  0  0
 25 26  1  0  0  0  0
 25 27  2  0  0  0  0
 27 28  1  0  0  0  0
 28 29  2  0  0  0  0
M  END
$$$$

 OpenBabel12191814062D

 32 36  0  0  0  0  0  0  0  0999 V2000
    2.8579   -6.6000    0.0000 F   0  0  0  0  0  0  0  0  0  0  0  0
    2.1434   -6.1875    0.0000 C   0  0  0  0  0  0  0  0  0  0  0  0
    1.4289   -6.6000    0.0000 C   0  0  0  0  0  0  0  0  0  0  0  0
    0.7145   -6.1875    0.0000 C   0  0  0  0  0  0  0  0  0  0  0  0
    0.7145   -5.3625    0.0000 C   0  0  0  0  0  0  0  0  0  0  0  0
    1.4289   -4.9500    0.0000 C   0  0  0  0  0  0  0  0  0  0  0  0
    2.1434   -5.3625    0.0000 C   0  0  0  0  0  0  0  0  0  0  0  0
    0.0000   -4.9500    0.0000 C   0  0  0  0  0  0  0  0  0  0  0  0
    0.0000   -4.1250    0.0000 C   0  0  0  0  0  0  0  0  0  0  0  0
   -0.7145   -3.7125    0.0000 C   0  0  0  0  0  0  0  0  0  0  0  0
   -0.7145   -2.8875    0.0000 C   0  0  0  0  0  0  0  0  0  0  0  0
    0.0000   -2.4750    0.0000 N   0  0  0  0  0  0  0  0  0  0  0  0
    0.0000   -1.6500    0.0000 C   0  0  0  0  0  0  0  0  0  0  0  0
    0.7145   -1.2375    0.0000 C   0  0  0  0  0  0  0  0  0  0  0  0
    0.7145   -0.4125    0.0000 C   0  0  0  0  0  0  0  0  0  0  0  0
    1.4289    0.0000    0.0000 C   0  0  0  0  0  0  0  0  0  0  0  0
    2.1434   -0.4125    0.0000 C   0  0  0  0  0  0  0  0  0  0  0  0
    2.8579    0.0000    0.0000 C   0  0  0  0  0  0  0  0  0  0  0  0
    3.5724   -0.4125    0.0000 C   0  0  0  0  0  0  0  0  0  0  0  0
    3.5724   -1.2375    0.0000 C   0  0  0  0  0  0  0  0  0  0  0  0
    2.8579   -1.6500    0.0000 C   0  0  0  0  0  0  0  0  0  0  0  0
    2.1434   -1.2375    0.0000 C   0  0  0  0  0  0  0  0  0  0  0  0
    1.4289   -1.6500    0.0000 C   0  0  0  0  0  0  0  0  0  0  0  0
    0.7145   -2.8875    0.0000 C   0  0  0  0  0  0  0  0  0  0  0  0
    0.7145   -3.7125    0.0000 C   0  0  0  0  0  0  0  0  0  0  0  0
   -0.7145   -5.3625    0.0000 C   0  0  0  0  0  0  0  0  0  0  0  0
   -0.7145   -6.1875    0.0000 C   0  0  0  0  0  0  0  0  0  0  0  0
   -1.4289   -6.6000    0.0000 C   0  0  0  0  0  0  0  0  0  0  0  0
   -2.1434   -6.1875    0.0000 C   0  0  0  0  0  0  0  0  0  0  0  0
   -2.8579   -6.6000    0.0000 F   0  0  0  0  0  0  0  0  0  0  0  0
   -2.1434   -5.3625    0.0000 C   0  0  0  0  0  0  0  0  0  0  0  0
   -1.4289   -4.9500    0.0000 C   0  0  0  0  0  0  0  0  0  0  0  0
  1  2  1  0  0  0  0
  2  3  2  0  0  0  0
  2  7  1  0  0  0  0
  3  4  1  0  0  0  0
  4  5  2  0  0  0  0
  5  6  1  0  0  0  0
  5  8  1  0  0  0  0
  6  7  2  0  0  0  0
  8  9  1  0  0  0  0
  8 26  1  0  0  0  0
  9 10  1  0  0  0  0
  9 25  1  0  0  0  0
 10 11  1  0  0  0  0
 11 12  1  0  0  0  0
 12 13  1  0  0  0  0
 12 24  1  0  0  0  0
 13 14  1  0  0  0  0
 14 15  2  0  0  0  0
 14 23  1  0  0  0  0
 15 16  1  0  0  0  0
 16 17  2  0  0  0  0
 17 18  1  0  0  0  0
 17 22  1  0  0  0  0
 18 19  2  0  0  0  0
 19 20  1  0  0  0  0
 20 21  2  0  0  0  0
 21 22  1  0  0  0  0
 22 23  2  0  0  0  0
 24 25  1  0  0  0  0
 26 27  2  0  0  0  0
 26 32  1  0  0  0  0
 27 28  1  0  0  0  0
 28 29  2  0  0  0  0
 29 30  1  0  0  0  0
 29 31  1  0  0  0  0
 31 32  2  0  0  0  0
M  END
$$$$

 OpenBabel12191814062D

 35 39  0  0  0  0  0  0  0  0999 V2000
   -0.0517   -9.6532    0.0000 F   0  0  0  0  0  0  0  0  0  0  0  0
    0.2033   -8.8685    0.0000 C   0  0  0  0  0  0  0  0  0  0  0  0
   -0.3488   -8.2554    0.0000 C   0  0  0  0  0  0  0  0  0  0  0  0
   -0.0938   -7.4708    0.0000 C   0  0  0  0  0  0  0  0  0  0  0  0
    0.7132   -7.2993    0.0000 C   0  0  0  0  0  0  0  0  0  0  0  0
    1.2652   -7.9124    0.0000 C   0  0  0  0  0  0  0  0  0  0  0  0
    1.0102   -8.6970    0.0000 C   0  0  0  0  0  0  0  0  0  0  0  0
    0.9681   -6.5147    0.0000 C   0  0  0  0  0  0  0  0  0  0  0  0
    0.4161   -5.9016    0.0000 C   0  0  0  0  0  0  0  0  0  0  0  0
    0.6710   -5.1170    0.0000 C   0  0  0  0  0  0  0  0  0  0  0  0
    0.1190   -4.5039    0.0000 C   0  0  0  0  0  0  0  0  0  0  0  0
    0.3739   -3.7192    0.0000 N   0  0  0  0  0  0  0  0  0  0  0  0
   -0.1781   -3.1062    0.0000 C   0  0  0  0  0  0  0  0  0  0  0  0
    0.0768   -2.3215    0.0000 C   0  0  0  0  0  0  0  0  0  0  0  0
    0.8838   -2.1500    0.0000 C   0  0  0  0  0  0  0  0  0  0  0  0
    1.4358   -2.7631    0.0000 C   0  0  0  0  0  0  0  0  0  0  0  0
    1.1809   -3.5477    0.0000 C   0  0  0  0  0  0  0  0  0  0  0  0
    1.1387   -1.3654    0.0000 N   0  0  0  0  0  0  0  0  0  0  0  0
    0.6538   -0.6979    0.0000 C   0  0  0  0  0  0  0  0  0  0  0  0
   -0.1712   -0.6979    0.0000 O   0  0  0  0  0  0  0  0  0  0  0  0
    1.1387   -0.0305    0.0000 N   0  0  0  0  0  0  0  0  0  0  0  0
    1.9233   -0.2854    0.0000 C   0  0  0  0  0  0  0  0  0  0  0  0
    2.6378    0.1271    0.0000 C   0  0  0  0  0  0  0  0  0  0  0  0
    3.3523   -0.2854    0.0000 C   0  0  0  0  0  0  0  0  0  0  0  0
    4.0668    0.1271    0.0000 Cl  0  0  0  0  0  0  0  0  0  0  0  0
    3.3523   -1.1104    0.0000 C   0  0  0  0  0  0  0  0  0  0  0  0
    2.6378   -1.5229    0.0000 C   0  0  0  0  0  0  0  0  0  0  0  0
    1.9233   -1.1104    0.0000 C   0  0  0  0  0  0  0  0  0  0  0  0
    1.7751   -6.3432    0.0000 C   0  0  0  0  0  0  0  0  0  0  0  0
    2.0300   -5.5585    0.0000 C   0  0  0  0  0  0  0  0  0  0  0  0
    2.8370   -5.3870    0.0000 C   0  0  0  0  0  0  0  0  0  0  0  0
    3.3890   -6.0001    0.0000 C   0  0  0  0  0  0  0  0  0  0  0  0
    4.1960   -5.8286    0.0000 F   0  0  0  0  0  0  0  0  0  0  0  0
    3.1341   -6.7847    0.0000 C   0  0  0  0  0  0  0  0  0  0  0  0
    2.3271   -6.9562    0.0000 C   0  0  0  0  0  0  0  0  0  0  0  0
  1  2  1  0  0  0  0
  2  3  2  0  0  0  0
  2  7  1  0  0  0  0
  3  4  1  0  0  0  0
  4  5  2  0  0  0  0
  5  6  1  0  0  0  0
  5  8  1  0  0  0  0
  6  7  2  0  0  0  0
  8  9  1  0  0  0  0
  8 29  1  0  0  0  0
  9 10  1  0  0  0  0
 10 11  1  0  0  0  0
 11 12  1  0  0  0  0
 12 13  1  0  0  0  0
 12 17  1  0  0  0  0
 13 14  1  0  0  0  0
 14 15  1  0  0  0  0
 15 16  1  0  0  0  0
 15 18  1  0  0  0  0
 16 17  1  0  0  0  0
 18 19  1  0  0  0  0
 18 28  1  0  0  0  0
 19 20  2  0  0  0  0
 19 21  1  0  0  0  0
 21 22  1  0  0  0  0
 22 23  2  0  0  0  0
 22 28  1  0  0  0  0
 23 24  1  0  0  0  0
 24 25  1  0  0  0  0
 24 26  2  0  0  0  0
 26 27  1  0  0  0  0
 27 28  2  0  0  0  0
 29 30  2  0  0  0  0
 29 35  1  0  0  0  0
 30 31  1  0  0  0  0
 31 32  2  0  0  0  0
 32 33  1  0  0  0  0
 32 34  1  0  0  0  0
 34 35  2  0  0  0  0
M  END
$$$$

 OpenBabel12191814062D

 34 38  0  0  0  0  0  0  0  0999 V2000
   -0.0517   -9.6532    0.0000 F   0  0  0  0  0  0  0  0  0  0  0  0
    0.2033   -8.8685    0.0000 C   0  0  0  0  0  0  0  0  0  0  0  0
   -0.3488   -8.2554    0.0000 C   0  0  0  0  0  0  0  0  0  0  0  0
   -0.0938   -7.4708    0.0000 C   0  0  0  0  0  0  0  0  0  0  0  0
    0.7132   -7.2993    0.0000 C   0  0  0  0  0  0  0  0  0  0  0  0
    1.2652   -7.9124    0.0000 C   0  0  0  0  0  0  0  0  0  0  0  0
    1.0102   -8.6970    0.0000 C   0  0  0  0  0  0  0  0  0  0  0  0
    0.9681   -6.5147    0.0000 C   0  0  0  0  0  0  0  0  0  0  0  0
    0.4161   -5.9016    0.0000 C   0  0  0  0  0  0  0  0  0  0  0  0
    0.6710   -5.1170    0.0000 C   0  0  0  0  0  0  0  0  0  0  0  0
    0.1190   -4.5039    0.0000 C   0  0  0  0  0  0  0  0  0  0  0  0
    0.3739   -3.7192    0.0000 N   0  0  0  0  0  0  0  0  0  0  0  0
   -0.1781   -3.1062    0.0000 C   0  0  0  0  0  0  0  0  0  0  0  0
    0.0768   -2.3215    0.0000 C   0  0  0  0  0  0  0  0  0  0  0  0
    0.8838   -2.1500    0.0000 C   0  0  0  0  0  0  0  0  0  0  0  0
    1.4358   -2.7631    0.0000 C   0  0  0  0  0  0  0  0  0  0  0  0
    1.1809   -3.5477    0.0000 C   0  0  0  0  0  0  0  0  0  0  0  0
    1.1387   -1.3654    0.0000 N   0  0  0  0  0  0  0  0  0  0  0  0
    0.6538   -0.6979    0.0000 C   0  0  0  0  0  0  0  0  0  0  0  0
   -0.1712   -0.6979    0.0000 O   0  0  0  0  0  0  0  0  0  0  0  0
    1.1387   -0.0305    0.0000 N   0  0  0  0  0  0  0  0  0  0  0  0
    1.9233   -0.2854    0.0000 C   0  0  0  0  0  0  0  0  0  0  0  0
    2.6378    0.1271    0.0000 C   0  0  0  0  0  0  0  0  0  0  0  0
    3.3523   -0.2854    0.0000 C   0  0  0  0  0  0  0  0  0  0  0  0
    3.3523   -1.1104    0.0000 C   0  0  0  0  0  0  0  0  0  0  0  0
    2.6378   -1.5229    0.0000 C   0  0  0  0  0  0  0  0  0  0  0  0
    1.9233   -1.1104    0.0000 C   0  0  0  0  0  0  0  0  0  0  0  0
    1.7751   -6.3432    0.0000 C   0  0  0  0  0  0  0  0  0  0  0  0
    2.0300   -5.5585    0.0000 C   0  0  0  0  0  0  0  0  0  0  0  0
    2.8370   -5.3870    0.0000 C   0  0  0  0  0  0  0  0  0  0  0  0
    3.3890   -6.0001    0.0000 C   0  0  0  0  0  0  0  0  0  0  0  0
    4.1960   -5.8286    0.0000 F   0  0  0  0  0  0  0  0  0  0  0  0
    3.1341   -6.7847    0.0000 C   0  0  0  0  0  0  0  0  0  0  0  0
    2.3271   -6.9562    0.0000 C   0  0  0  0  0  0  0  0  0  0  0  0
  1  2  1  0  0  0  0
  2  3  2  0  0  0  0
  2  7  1  0  0  0  0
  3  4  1  0  0  0  0
  4  5  2  0  0  0  0
  5  6  1  0  0  0  0
  5  8  1  0  0  0  0
  6  7  2  0  0  0  0
  8  9  1  0  0  0  0
  8 28  1  0  0  0  0
  9 10  1  0  0  0  0
 10 11  1  0  0  0  0
 11 12  1  0  0  0  0
 12 13  1  0  0  0  0
 12 17  1  0  0  0  0
 13 14  1  0  0  0  0
 14 15  1  0  0  0  0
 15 16  1  0  0  0  0
 15 18  1  0  0  0  0
 16 17  1  0  0  0  0
 18 19  1  0  0  0  0
 18 27  1  0  0  0  0
 19 20  2  0  0  0  0
 19 21  1  0  0  0  0
 21 22  1  0  0  0  0
 22 23  2  0  0  0  0
 22 27  1  0  0  0  0
 23 24  1  0  0  0  0
 24 25  2  0  0  0  0
 25 26  1  0  0  0  0
 26 27  2  0  0  0  0
 28 29  2  0  0  0  0
 28 34  1  0  0  0  0
 29 30  1  0  0  0  0
 30 31  2  0  0  0  0
 31 32  1  0  0  0  0
 31 33  1  0  0  0  0
 33 34  2  0  0  0  0
M  END
$$$$

 OpenBabel12191814062D

 34 38  0  0  0  0  0  0  0  0999 V2000
   -2.7697    7.3741    0.0000 F   0  0  0  0  0  0  0  0  0  0  0  0
   -2.5147    6.5895    0.0000 C   0  0  0  0  0  0  0  0  0  0  0  0
   -1.7078    6.4180    0.0000 C   0  0  0  0  0  0  0  0  0  0  0  0
   -1.4528    5.6334    0.0000 C   0  0  0  0  0  0  0  0  0  0  0  0
   -2.0049    5.0203    0.0000 C   0  0  0  0  0  0  0  0  0  0  0  0
   -2.8118    5.1918    0.0000 C   0  0  0  0  0  0  0  0  0  0  0  0
   -3.0668    5.9764    0.0000 C   0  0  0  0  0  0  0  0  0  0  0  0
   -1.7499    4.2357    0.0000 C   0  0  0  0  0  0  0  0  0  0  0  0
   -0.9429    4.0641    0.0000 C   0  0  0  0  0  0  0  0  0  0  0  0
   -0.6880    3.2795    0.0000 C   0  0  0  0  0  0  0  0  0  0  0  0
    0.1190    3.1080    0.0000 C   0  0  0  0  0  0  0  0  0  0  0  0
    0.3739    2.3234    0.0000 N   0  0  0  0  0  0  0  0  0  0  0  0
    1.1809    2.1518    0.0000 C   0  0  0  0  0  0  0  0  0  0  0  0
    1.4358    1.3672    0.0000 C   0  0  0  0  0  0  0  0  0  0  0  0
    0.8838    0.7541    0.0000 C   0  0  0  0  0  0  0  0  0  0  0  0
    0.0768    0.9256    0.0000 C   0  0  0  0  0  0  0  0  0  0  0  0
   -0.1781    1.7103    0.0000 C   0  0  0  0  0  0  0  0  0  0  0  0
    1.1387   -0.0305    0.0000 N   0  0  0  0  0  0  0  0  0  0  0  0
    1.9233   -0.2854    0.0000 C   0  0  3  0  0  0  0  0  0  0  0  0
    2.6378    0.1271    0.0000 C   0  0  0  0  0  0  0  0  0  0  0  0
    3.3523   -0.2854    0.0000 C   0  0  0  0  0  0  0  0  0  0  0  0
    3.3523   -1.1104    0.0000 C   0  0  0  0  0  0  0  0  0  0  0  0
    2.6378   -1.5229    0.0000 C   0  0  0  0  0  0  0  0  0  0  0  0
    1.9233   -1.1104    0.0000 C   0  0  3  0  0  0  0  0  0  0  0  0
    1.1387   -1.3654    0.0000 N   0  0  0  0  0  0  0  0  0  0  0  0
    0.6538   -0.6979    0.0000 C   0  0  0  0  0  0  0  0  0  0  0  0
   -0.1712   -0.6979    0.0000 O   0  0  0  0  0  0  0  0  0  0  0  0
   -2.3020    3.6226    0.0000 C   0  0  0  0  0  0  0  0  0  0  0  0
   -2.0470    2.8379    0.0000 C   0  0  0  0  0  0  0  0  0  0  0  0
   -2.5990    2.2248    0.0000 C   0  0  0  0  0  0  0  0  0  0  0  0
   -3.4060    2.3964    0.0000 C   0  0  0  0  0  0  0  0  0  0  0  0
   -3.9580    1.7833    0.0000 F   0  0  0  0  0  0  0  0  0  0  0  0
   -3.6610    3.1810    0.0000 C   0  0  0  0  0  0  0  0  0  0  0  0
   -3.1089    3.7941    0.0000 C   0  0  0  0  0  0  0  0  0  0  0  0
  1  2  1  0  0  0  0
  2  3  2  0  0  0  0
  2  7  1  0  0  0  0
  3  4  1  0  0  0  0
  4  5  2  0  0  0  0
  5  6  1  0  0  0  0
  5  8  1  0  0  0  0
  6  7  2  0  0  0  0
  8  9  1  0  0  0  0
  8 28  1  0  0  0  0
  9 10  1  0  0  0  0
 10 11  1  0  0  0  0
 11 12  1  0  0  0  0
 12 13  1  0  0  0  0
 12 17  1  0  0  0  0
 13 14  1  0  0  0  0
 14 15  1  0  0  0  0
 15 16  1  0  0  0  0
 15 18  1  0  0  0  0
 16 17  1  0  0  0  0
 18 19  1  0  0  0  0
 18 26  1  0  0  0  0
 19 20  1  0  0  0  0
 19 24  1  0  0  0  0
 20 21  1  0  0  0  0
 21 22  1  0  0  0  0
 22 23  1  0  0  0  0
 23 24  1  0  0  0  0
 24 25  1  0  0  0  0
 25 26  1  0  0  0  0
 26 27  2  0  0  0  0
 28 29  2  0  0  0  0
 28 34  1  0  0  0  0
 29 30  1  0  0  0  0
 30 31  2  0  0  0  0
 31 32  1  0  0  0  0
 31 33  1  0  0  0  0
 33 34  2  0  0  0  0
M  END
$$$$

 OpenBabel12191814062D

 35 39  0  0  0  0  0  0  0  0999 V2000
    8.6945    1.8414    0.0000 F   0  0  0  0  0  0  0  0  0  0  0  0
    7.8695    1.8414    0.0000 C   0  0  0  0  0  0  0  0  0  0  0  0
    7.4570    1.1270    0.0000 C   0  0  0  0  0  0  0  0  0  0  0  0
    6.6320    1.1270    0.0000 C   0  0  0  0  0  0  0  0  0  0  0  0
    6.2195    1.8414    0.0000 C   0  0  0  0  0  0  0  0  0  0  0  0
    6.6320    2.5559    0.0000 C   0  0  0  0  0  0  0  0  0  0  0  0
    7.4570    2.5559    0.0000 C   0  0  0  0  0  0  0  0  0  0  0  0
    5.3945    1.8414    0.0000 C   0  0  0  0  0  0  0  0  0  0  0  0
    4.9820    1.1270    0.0000 C   0  0  0  0  0  0  0  0  0  0  0  0
    4.1570    1.1270    0.0000 C   0  0  0  0  0  0  0  0  0  0  0  0
    3.7445    0.4125    0.0000 C   0  0  0  0  0  0  0  0  0  0  0  0
    2.9195    0.4125    0.0000 N   0  0  0  0  0  0  0  0  0  0  0  0
    2.5070   -0.3020    0.0000 C   0  0  0  0  0  0  0  0  0  0  0  0
    1.6820   -0.3020    0.0000 C   0  0  0  0  0  0  0  0  0  0  0  0
    1.2695    0.4125    0.0000 C   0  0  0  0  0  0  0  0  0  0  0  0
    1.6820    1.1270    0.0000 C   0  0  0  0  0  0  0  0  0  0  0  0
    2.5070    1.1270    0.0000 C   0  0  0  0  0  0  0  0  0  0  0  0
    0.7846   -0.2549    0.0000 N   0  0  0  0  0  0  0  0  0  0  0  0
    0.0000   -0.0000    0.0000 C   0  0  0  0  0  0  0  0  0  0  0  0
   -0.0000    0.8250    0.0000 N   0  0  0  0  0  0  0  0  0  0  0  0
    0.7846    1.0799    0.0000 C   0  0  0  0  0  0  0  0  0  0  0  0
    1.0396    1.8646    0.0000 O   0  0  0  0  0  0  0  0  0  0  0  0
    1.0396   -1.0396    0.0000 C   0  0  0  0  0  0  0  0  0  0  0  0
    1.8465   -1.2111    0.0000 C   0  0  0  0  0  0  0  0  0  0  0  0
    2.1015   -1.9957    0.0000 C   0  0  0  0  0  0  0  0  0  0  0  0
    1.5494   -2.6088    0.0000 C   0  0  0  0  0  0  0  0  0  0  0  0
    0.7425   -2.4373    0.0000 C   0  0  0  0  0  0  0  0  0  0  0  0
    0.4875   -1.6527    0.0000 C   0  0  0  0  0  0  0  0  0  0  0  0
    4.9820    2.5559    0.0000 C   0  0  0  0  0  0  0  0  0  0  0  0
    4.1570    2.5559    0.0000 C   0  0  0  0  0  0  0  0  0  0  0  0
    3.7445    3.2704    0.0000 C   0  0  0  0  0  0  0  0  0  0  0  0
    4.1570    3.9849    0.0000 C   0  0  0  0  0  0  0  0  0  0  0  0
    3.7445    4.6993    0.0000 F   0  0  0  0  0  0  0  0  0  0  0  0
    4.9820    3.9849    0.0000 C   0  0  0  0  0  0  0  0  0  0  0  0
    5.3945    3.2704    0.0000 C   0  0  0  0  0  0  0  0  0  0  0  0
  1  2  1  0  0  0  0
  2  3  2  0  0  0  0
  2  7  1  0  0  0  0
  3  4  1  0  0  0  0
  4  5  2  0  0  0  0
  5  6  1  0  0  0  0
  5  8  1  0  0  0  0
  6  7  2  0  0  0  0
  8  9  1  0  0  0  0
  8 29  1  0  0  0  0
  9 10  1  0  0  0  0
 10 11  1  0  0  0  0
 11 12  1  0  0  0  0
 12 13  1  0  0  0  0
 12 17  1  0  0  0  0
 13 14  1  0  0  0  0
 14 15  1  0  0  0  0
 15 16  1  0  0  0  0
 15 18  1  0  0  0  0
 15 21  1  0  0  0  0
 16 17  1  0  0  0  0
 18 19  1  0  0  0  0
 18 23  1  0  0  0  0
 19 20  1  0  0  0  0
 20 21  1  0  0  0  0
 21 22  2  0  0  0  0
 23 24  2  0  0  0  0
 23 28  1  0  0  0  0
 24 25  1  0  0  0  0
 25 26  2  0  0  0  0
 26 27  1  0  0  0  0
 27 28  2  0  0  0  0
 29 30  2  0  0  0  0
 29 35  1  0  0  0  0
 30 31  1  0  0  0  0
 31 32  2  0  0  0  0
 32 33  1  0  0  0  0
 32 34  1  0  0  0  0
 34 35  2  0  0  0  0
M  END
$$$$

 OpenBabel12191814062D

 33 36  0  0  0  0  0  0  0  0999 V2000
    2.1434   -0.4125    0.0000 F   0  0  0  0  0  0  0  0  0  0  0  0
    2.1434   -1.2375    0.0000 C   0  0  0  0  0  0  0  0  0  0  0  0
    2.8579   -1.6500    0.0000 C   0  0  0  0  0  0  0  0  0  0  0  0
    2.8579   -2.4750    0.0000 C   0  0  0  0  0  0  0  0  0  0  0  0
    2.1434   -2.8875    0.0000 C   0  0  0  0  0  0  0  0  0  0  0  0
    1.4289   -2.4750    0.0000 C   0  0  0  0  0  0  0  0  0  0  0  0
    1.4289   -1.6500    0.0000 C   0  0  0  0  0  0  0  0  0  0  0  0
    2.1434   -3.7125    0.0000 C   0  0  0  0  0  0  0  0  0  0  0  0
    2.8579   -4.1250    0.0000 C   0  0  0  0  0  0  0  0  0  0  0  0
    2.8579   -4.9500    0.0000 C   0  0  0  0  0  0  0  0  0  0  0  0
    3.5724   -5.3625    0.0000 C   0  0  0  0  0  0  0  0  0  0  0  0
    3.5724   -6.1875    0.0000 N   0  0  0  0  0  0  0  0  0  0  0  0
    4.2868   -6.6000    0.0000 C   0  0  0  0  0  0  0  0  0  0  0  0
    4.2868   -7.4250    0.0000 C   0  0  0  0  0  0  0  0  0  0  0  0
    3.5724   -7.8375    0.0000 N   0  0  0  0  0  0  0  0  0  0  0  0
    3.5724   -8.6625    0.0000 C   0  0  0  0  0  0  0  0  0  0  0  0
    2.8579   -9.0750    0.0000 C   0  0  0  0  0  0  0  0  0  0  0  0
    2.8579   -9.9000    0.0000 N   0  0  0  0  0  0  0  0  0  0  0  0
    3.5724  -10.3125    0.0000 C   0  0  0  0  0  0  0  0  0  0  0  0
    4.2868   -9.9000    0.0000 C   0  0  0  0  0  0  0  0  0  0  0  0
    5.0013  -10.3125    0.0000 C   0  0  0  0  0  0  0  0  0  0  0  0
    5.0013  -11.1375    0.0000 C   0  0  0  0  0  0  0  0  0  0  0  0
    4.2868  -11.5500    0.0000 C   0  0  0  0  0  0  0  0  0  0  0  0
    3.5724  -11.1375    0.0000 C   0  0  0  0  0  0  0  0  0  0  0  0
    2.8579   -7.4250    0.0000 C   0  0  0  0  0  0  0  0  0  0  0  0
    2.8579   -6.6000    0.0000 C   0  0  0  0  0  0  0  0  0  0  0  0
    1.4289   -4.1250    0.0000 C   0  0  0  0  0  0  0  0  0  0  0  0
    1.4289   -4.9500    0.0000 C   0  0  0  0  0  0  0  0  0  0  0  0
    0.7145   -5.3625    0.0000 C   0  0  0  0  0  0  0  0  0  0  0  0
   -0.0000   -4.9500    0.0000 C   0  0  0  0  0  0  0  0  0  0  0  0
   -0.7145   -5.3625    0.0000 F   0  0  0  0  0  0  0  0  0  0  0  0
   -0.0000   -4.1250    0.0000 C   0  0  0  0  0  0  0  0  0  0  0  0
    0.7145   -3.7125    0.0000 C   0  0  0  0  0  0  0  0  0  0  0  0
  1  2  1  0  0  0  0
  2  3  2  0  0  0  0
  2  7  1  0  0  0  0
  3  4  1  0  0  0  0
  4  5  2  0  0  0  0
  5  6  1  0  0  0  0
  5  8  1  0  0  0  0
  6  7  2  0  0  0  0
  8  9  1  0  0  0  0
  8 27  1  0  0  0  0
  9 10  1  0  0  0  0
 10 11  1  0  0  0  0
 11 12  1  0  0  0  0
 12 13  1  0  0  0  0
 12 26  1  0  0  0  0
 13 14  1  0  0  0  0
 14 15  1  0  0  0  0
 15 16  1  0  0  0  0
 15 25  1  0  0  0  0
 16 17  1  0  0  0  0
 17 18  1  0  0  0  0
 18 19  1  0  0  0  0
 19 20  2  0  0  0  0
 19 24  1  0  0  0  0
 20 21  1  0  0  0  0
 21 22  2  0  0  0  0
 22 23  1  0  0  0  0
 23 24  2  0  0  0  0
 25 26  1  0  0  0  0
 27 28  2  0  0  0  0
 27 33  1  0  0  0  0
 28 29  1  0  0  0  0
 29 30  2  0  0  0  0
 30 31  1  0  0  0  0
 30 32  1  0  0  0  0
 32 33  2  0  0  0  0
M  END
$$$$

 OpenBabel12191814062D

 39 43  0  0  0  0  0  0  0  0999 V2000
    6.9246    8.1229    0.0000 F   0  0  0  0  0  0  0  0  0  0  0  0
    6.9246    7.2979    0.0000 C   0  0  0  0  0  0  0  0  0  0  0  0
    7.6391    6.8854    0.0000 C   0  0  0  0  0  0  0  0  0  0  0  0
    7.6391    6.0604    0.0000 C   0  0  0  0  0  0  0  0  0  0  0  0
    6.9246    5.6479    0.0000 C   0  0  0  0  0  0  0  0  0  0  0  0
    6.2102    6.0604    0.0000 C   0  0  0  0  0  0  0  0  0  0  0  0
    6.2102    6.8854    0.0000 C   0  0  0  0  0  0  0  0  0  0  0  0
    6.9246    4.8229    0.0000 C   0  0  0  0  0  0  0  0  0  0  0  0
    6.2102    4.4104    0.0000 C   0  0  0  0  0  0  0  0  0  0  0  0
    6.2102    3.5854    0.0000 N   0  0  0  0  0  0  0  0  0  0  0  0
    5.4957    3.1729    0.0000 C   0  0  0  0  0  0  0  0  0  0  0  0
    5.4957    2.3479    0.0000 C   0  0  0  0  0  0  0  0  0  0  0  0
    4.7812    1.9354    0.0000 C   0  0  0  0  0  0  0  0  0  0  0  0
    4.0668    2.3479    0.0000 N   0  0  0  0  0  0  0  0  0  0  0  0
    4.0668    3.1729    0.0000 C   0  0  0  0  0  0  0  0  0  0  0  0
    4.7812    3.5854    0.0000 C   0  0  0  0  0  0  0  0  0  0  0  0
    3.3523    1.9354    0.0000 C   0  0  0  0  0  0  0  0  0  0  0  0
    3.3523    1.1104    0.0000 N   0  0  0  0  0  0  0  0  0  0  0  0
    2.6378    0.6979    0.0000 C   0  0  0  0  0  0  0  0  0  0  0  0
    2.6378   -0.1271    0.0000 N   0  0  0  0  0  0  0  0  0  0  0  0
    3.3523   -0.5396    0.0000 C   0  0  0  0  0  0  0  0  0  0  0  0
    3.3523   -1.3646    0.0000 C   0  0  0  0  0  0  0  0  0  0  0  0
    2.6378   -1.7771    0.0000 C   0  0  0  0  0  0  0  0  0  0  0  0
    1.9233    1.1104    0.0000 C   0  0  0  0  0  0  0  0  0  0  0  0
    1.1387    0.8555    0.0000 N   0  0  0  0  0  0  0  0  0  0  0  0
    0.6538    1.5229    0.0000 C   0  0  0  0  0  0  0  0  0  0  0  0
    1.1387    2.1904    0.0000 N   0  0  0  0  0  0  0  0  0  0  0  0
    0.8838    2.9750    0.0000 C   0  0  0  0  0  0  0  0  0  0  0  0
    0.0768    3.1465    0.0000 C   0  0  0  0  0  0  0  0  0  0  0  0
   -0.1781    3.9312    0.0000 C   0  0  0  0  0  0  0  0  0  0  0  0
    1.9233    1.9354    0.0000 C   0  0  0  0  0  0  0  0  0  0  0  0
    2.6378    2.3479    0.0000 N   0  0  0  0  0  0  0  0  0  0  0  0
    7.6391    4.4104    0.0000 C   0  0  0  0  0  0  0  0  0  0  0  0
    8.3536    4.8229    0.0000 C   0  0  0  0  0  0  0  0  0  0  0  0
    9.0681    4.4104    0.0000 C   0  0  0  0  0  0  0  0  0  0  0  0
    9.0681    3.5854    0.0000 C   0  0  0  0  0  0  0  0  0  0  0  0
    9.7825    3.1729    0.0000 F   0  0  0  0  0  0  0  0  0  0  0  0
    8.3536    3.1729    0.0000 C   0  0  0  0  0  0  0  0  0  0  0  0
    7.6391    3.5854    0.0000 C   0  0  0  0  0  0  0  0  0  0  0  0
  1  2  1  0  0  0  0
  2  3  2  0  0  0  0
  2  7  1  0  0  0  0
  3  4  1  0  0  0  0
  4  5  2  0  0  0  0
  5  6  1  0  0  0  0
  5  8  1  0  0  0  0
  6  7  2  0  0  0  0
  8  9  1  0  0  0  0
  8 33  1  0  0  0  0
  9 10  1  0  0  0  0
 10 11  1  0  0  0  0
 11 12  1  0  0  0  0
 11 16  1  0  0  0  0
 12 13  1  0  0  0  0
 13 14  1  0  0  0  0
 14 15  1  0  0  0  0
 14 17  1  0  0  0  0
 15 16  1  0  0  0  0
 17 18  2  0  0  0  0
 17 32  1  0  0  0  0
 18 19  1  0  0  0  0
 19 20  1  0  0  0  0
 19 24  2  0  0  0  0
 20 21  1  0  0  0  0
 21 22  1  0  0  0  0
 22 23  2  0  0  0  0
 24 25  1  0  0  0  0
 24 31  1  0  0  0  0
 25 26  2  0  0  0  0
 26 27  1  0  0  0  0
 27 28  1  0  0  0  0
 27 31  1  0  0  0  0
 28 29  1  0  0  0  0
 29 30  2  0  0  0  0
 31 32  2  0  0  0  0
 33 34  2  0  0  0  0
 33 39  1  0  0  0  0
 34 35  1  0  0  0  0
 35 36  2  0  0  0  0
 36 37  1  0  0  0  0
 36 38  1  0  0  0  0
 38 39  2  0  0  0  0
M  END
$$$$

 OpenBabel12191814062D

 37 40  0  0  0  0  0  0  0  0999 V2000
   -0.7145   -0.4125    0.0000 F   0  0  0  0  0  0  0  0  0  0  0  0
   -0.7145   -1.2375    0.0000 C   0  0  0  0  0  0  0  0  0  0  0  0
    0.0000   -1.6500    0.0000 C   0  0  0  0  0  0  0  0  0  0  0  0
    0.0000   -2.4750    0.0000 C   0  0  0  0  0  0  0  0  0  0  0  0
   -0.7145   -2.8875    0.0000 C   0  0  0  0  0  0  0  0  0  0  0  0
   -1.4289   -2.4750    0.0000 C   0  0  0  0  0  0  0  0  0  0  0  0
   -1.4289   -1.6500    0.0000 C   0  0  0  0  0  0  0  0  0  0  0  0
   -0.7145   -3.7125    0.0000 C   0  0  0  0  0  0  0  0  0  0  0  0
   -1.4289   -4.1250    0.0000 C   0  0  0  0  0  0  0  0  0  0  0  0
   -1.4289   -4.9500    0.0000 N   0  0  0  0  0  0  0  0  0  0  0  0
   -2.1434   -5.3625    0.0000 C   0  0  0  0  0  0  0  0  0  0  0  0
   -2.1434   -6.1875    0.0000 C   0  0  0  0  0  0  0  0  0  0  0  0
   -2.8579   -6.6000    0.0000 C   0  0  0  0  0  0  0  0  0  0  0  0
   -3.5724   -6.1875    0.0000 N   0  0  0  0  0  0  0  0  0  0  0  0
   -3.5724   -5.3625    0.0000 C   0  0  0  0  0  0  0  0  0  0  0  0
   -2.8579   -4.9500    0.0000 C   0  0  0  0  0  0  0  0  0  0  0  0
   -4.2868   -6.6000    0.0000 C   0  0  0  0  0  0  0  0  0  0  0  0
   -4.2868   -7.4250    0.0000 N   0  0  0  0  0  0  0  0  0  0  0  0
   -5.0013   -7.8375    0.0000 C   0  0  0  0  0  0  0  0  0  0  0  0
   -5.0013   -8.6625    0.0000 N   0  0  0  0  0  0  0  0  0  0  0  0
   -4.2868   -9.0750    0.0000 C   0  0  0  0  0  0  0  0  0  0  0  0
   -4.2868   -9.9000    0.0000 C   0  0  0  0  0  0  0  0  0  0  0  0
   -5.0013  -10.3125    0.0000 C   0  0  0  0  0  0  0  0  0  0  0  0
   -5.7158   -7.4250    0.0000 N   0  0  0  0  0  0  0  0  0  0  0  0
   -5.7158   -6.6000    0.0000 C   0  0  0  0  0  0  0  0  0  0  0  0
   -6.4302   -6.1875    0.0000 N   0  0  0  0  0  0  0  0  0  0  0  0
   -6.4302   -5.3625    0.0000 C   0  0  0  0  0  0  0  0  0  0  0  0
   -7.1447   -4.9500    0.0000 C   0  0  0  0  0  0  0  0  0  0  0  0
   -7.1447   -4.1250    0.0000 C   0  0  0  0  0  0  0  0  0  0  0  0
   -5.0013   -6.1875    0.0000 N   0  0  0  0  0  0  0  0  0  0  0  0
   -0.0000   -4.1250    0.0000 C   0  0  0  0  0  0  0  0  0  0  0  0
    0.7145   -3.7125    0.0000 C   0  0  0  0  0  0  0  0  0  0  0  0
    1.4289   -4.1250    0.0000 C   0  0  0  0  0  0  0  0  0  0  0  0
    1.4289   -4.9500    0.0000 C   0  0  0  0  0  0  0  0  0  0  0  0
    2.1434   -5.3625    0.0000 F   0  0  0  0  0  0  0  0  0  0  0  0
    0.7145   -5.3625    0.0000 C   0  0  0  0  0  0  0  0  0  0  0  0
   -0.0000   -4.9500    0.0000 C   0  0  0  0  0  0  0  0  0  0  0  0
  1  2  1  0  0  0  0
  2  3  2  0  0  0  0
  2  7  1  0  0  0  0
  3  4  1  0  0  0  0
  4  5  2  0  0  0  0
  5  6  1  0  0  0  0
  5  8  1  0  0  0  0
  6  7  2  0  0  0  0
  8  9  1  0  0  0  0
  8 31  1  0  0  0  0
  9 10  1  0  0  0  0
 10 11  1  0  0  0  0
 11 12  1  0  0  0  0
 11 16  1  0  0  0  0
 12 13  1  0  0  0  0
 13 14  1  0  0  0  0
 14 15  1  0  0  0  0
 14 17  1  0  0  0  0
 15 16  1  0  0  0  0
 17 18  2  0  0  0  0
 17 30  1  0  0  0  0
 18 19  1  0  0  0  0
 19 20  1  0  0  0  0
 19 24  2  0  0  0  0
 20 21  1  0  0  0  0
 21 22  1  0  0  0  0
 22 23  2  0  0  0  0
 24 25  1  0  0  0  0
 25 26  1  0  0  0  0
 25 30  2  0  0  0  0
 26 27  1  0  0  0  0
 27 28  1  0  0  0  0
 28 29  2  0  0  0  0
 31 32  2  0  0  0  0
 31 37  1  0  0  0  0
 32 33  1  0  0  0  0
 33 34  2  0  0  0  0
 34 35  1  0  0  0  0
 34 36  1  0  0  0  0
 36 37  2  0  0  0  0
M  END
$$$$

 OpenBabel12191814062D

 36 39  0  0  0  0  0  0  0  0999 V2000
   -0.7145   -0.4125    0.0000 F   0  0  0  0  0  0  0  0  0  0  0  0
   -0.7145   -1.2375    0.0000 C   0  0  0  0  0  0  0  0  0  0  0  0
    0.0000   -1.6500    0.0000 C   0  0  0  0  0  0  0  0  0  0  0  0
    0.0000   -2.4750    0.0000 C   0  0  0  0  0  0  0  0  0  0  0  0
   -0.7145   -2.8875    0.0000 C   0  0  0  0  0  0  0  0  0  0  0  0
   -1.4289   -2.4750    0.0000 C   0  0  0  0  0  0  0  0  0  0  0  0
   -1.4289   -1.6500    0.0000 C   0  0  0  0  0  0  0  0  0  0  0  0
   -0.7145   -3.7125    0.0000 C   0  0  3  0  0  0  0  0  0  0  0  0
   -1.4289   -4.1250    0.0000 C   0  0  0  0  0  0  0  0  0  0  0  0
   -1.4289   -4.9500    0.0000 N   0  0  0  0  0  0  0  0  0  0  0  0
   -2.1434   -5.3625    0.0000 C   0  0  0  0  0  0  0  0  0  0  0  0
   -2.1434   -6.1875    0.0000 C   0  0  0  0  0  0  0  0  0  0  0  0
   -2.8579   -6.6000    0.0000 C   0  0  0  0  0  0  0  0  0  0  0  0
   -3.5724   -6.1875    0.0000 N   0  0  0  0  0  0  0  0  0  0  0  0
   -3.5724   -5.3625    0.0000 C   0  0  0  0  0  0  0  0  0  0  0  0
   -2.8579   -4.9500    0.0000 C   0  0  0  0  0  0  0  0  0  0  0  0
   -4.2868   -6.6000    0.0000 C   0  0  0  0  0  0  0  0  0  0  0  0
   -4.2868   -7.4250    0.0000 N   0  0  0  0  0  0  0  0  0  0  0  0
   -5.0013   -7.8375    0.0000 C   0  0  0  0  0  0  0  0  0  0  0  0
   -5.0013   -8.6625    0.0000 N   0  0  0  0  0  0  0  0  0  0  0  0
   -4.2868   -9.0750    0.0000 C   0  0  0  0  0  0  0  0  0  0  0  0
   -4.2868   -9.9000    0.0000 C   0  0  0  0  0  0  0  0  0  0  0  0
   -5.0013  -10.3125    0.0000 C   0  0  0  0  0  0  0  0  0  0  0  0
   -5.7158   -7.4250    0.0000 N   0  0  0  0  0  0  0  0  0  0  0  0
   -5.7158   -6.6000    0.0000 C   0  0  0  0  0  0  0  0  0  0  0  0
   -6.4302   -6.1875    0.0000 N   0  0  0  0  0  0  0  0  0  0  0  0
   -6.4302   -5.3625    0.0000 C   0  0  0  0  0  0  0  0  0  0  0  0
   -7.1447   -4.9500    0.0000 C   0  0  0  0  0  0  0  0  0  0  0  0
   -7.1447   -4.1250    0.0000 C   0  0  0  0  0  0  0  0  0  0  0  0
   -5.0013   -6.1875    0.0000 N   0  0  0  0  0  0  0  0  0  0  0  0
   -0.0000   -4.1250    0.0000 C   0  0  0  0  0  0  0  0  0  0  0  0
    0.7145   -3.7125    0.0000 C   0  0  0  0  0  0  0  0  0  0  0  0
    1.4289   -4.1250    0.0000 C   0  0  0  0  0  0  0  0  0  0  0  0
    1.4289   -4.9500    0.0000 C   0  0  0  0  0  0  0  0  0  0  0  0
    0.7145   -5.3625    0.0000 C   0  0  0  0  0  0  0  0  0  0  0  0
   -0.0000   -4.9500    0.0000 C   0  0  0  0  0  0  0  0  0  0  0  0
  1  2  1  0  0  0  0
  2  3  2  0  0  0  0
  2  7  1  0  0  0  0
  3  4  1  0  0  0  0
  4  5  2  0  0  0  0
  5  6  1  0  0  0  0
  5  8  1  0  0  0  0
  6  7  2  0  0  0  0
  8  9  1  0  0  0  0
  8 31  1  0  0  0  0
  9 10  1  0  0  0  0
 10 11  1  0  0  0  0
 11 12  1  0  0  0  0
 11 16  1  0  0  0  0
 12 13  1  0  0  0  0
 13 14  1  0  0  0  0
 14 15  1  0  0  0  0
 14 17  1  0  0  0  0
 15 16  1  0  0  0  0
 17 18  2  0  0  0  0
 17 30  1  0  0  0  0
 18 19  1  0  0  0  0
 19 20  1  0  0  0  0
 19 24  2  0  0  0  0
 20 21  1  0  0  0  0
 21 22  1  0  0  0  0
 22 23  2  0  0  0  0
 24 25  1  0  0  0  0
 25 26  1  0  0  0  0
 25 30  2  0  0  0  0
 26 27  1  0  0  0  0
 27 28  1  0  0  0  0
 28 29  2  0  0  0  0
 31 32  1  0  0  0  0
 31 36  1  0  0  0  0
 32 33  1  0  0  0  0
 33 34  1  0  0  0  0
 34 35  1  0  0  0  0
 35 36  1  0  0  0  0
M  END
$$$$

 OpenBabel12191814062D

 38 41  0  0  0  0  0  0  0  0999 V2000
   -0.7145   -0.4125    0.0000 F   0  0  0  0  0  0  0  0  0  0  0  0
   -0.7145   -1.2375    0.0000 C   0  0  0  0  0  0  0  0  0  0  0  0
    0.0000   -1.6500    0.0000 C   0  0  0  0  0  0  0  0  0  0  0  0
    0.0000   -2.4750    0.0000 C   0  0  0  0  0  0  0  0  0  0  0  0
   -0.7145   -2.8875    0.0000 C   0  0  0  0  0  0  0  0  0  0  0  0
   -1.4289   -2.4750    0.0000 C   0  0  0  0  0  0  0  0  0  0  0  0
   -1.4289   -1.6500    0.0000 C   0  0  0  0  0  0  0  0  0  0  0  0
   -0.7145   -3.7125    0.0000 C   0  0  0  0  0  0  0  0  0  0  0  0
   -1.4289   -4.1250    0.0000 C   0  0  0  0  0  0  0  0  0  0  0  0
   -1.4289   -4.9500    0.0000 N   0  0  0  0  0  0  0  0  0  0  0  0
   -2.1434   -5.3625    0.0000 C   0  0  0  0  0  0  0  0  0  0  0  0
   -2.1434   -6.1875    0.0000 C   0  0  0  0  0  0  0  0  0  0  0  0
   -2.8579   -6.6000    0.0000 C   0  0  0  0  0  0  0  0  0  0  0  0
   -3.5724   -6.1875    0.0000 N   0  0  0  0  0  0  0  0  0  0  0  0
   -4.2868   -6.6000    0.0000 C   0  0  0  0  0  0  0  0  0  0  0  0
   -5.0013   -6.1875    0.0000 C   0  0  0  0  0  0  0  0  0  0  0  0
   -5.7158   -6.6000    0.0000 N   0  0  0  0  0  0  0  0  0  0  0  0
   -6.4302   -6.1875    0.0000 C   0  0  0  0  0  0  0  0  0  0  0  0
   -7.1447   -6.6000    0.0000 N   0  0  0  0  0  0  0  0  0  0  0  0
   -7.1447   -7.4250    0.0000 C   0  0  0  0  0  0  0  0  0  0  0  0
   -7.8592   -7.8375    0.0000 C   0  0  0  0  0  0  0  0  0  0  0  0
   -7.8592   -8.6625    0.0000 C   0  0  0  0  0  0  0  0  0  0  0  0
   -6.4302   -5.3625    0.0000 N   0  0  0  0  0  0  0  0  0  0  0  0
   -5.7158   -4.9500    0.0000 C   0  0  0  0  0  0  0  0  0  0  0  0
   -5.7158   -4.1250    0.0000 N   0  0  0  0  0  0  0  0  0  0  0  0
   -5.0013   -3.7125    0.0000 C   0  0  0  0  0  0  0  0  0  0  0  0
   -5.0013   -2.8875    0.0000 C   0  0  0  0  0  0  0  0  0  0  0  0
   -4.2868   -2.4750    0.0000 C   0  0  0  0  0  0  0  0  0  0  0  0
   -5.0013   -5.3625    0.0000 N   0  0  0  0  0  0  0  0  0  0  0  0
   -3.5724   -5.3625    0.0000 C   0  0  0  0  0  0  0  0  0  0  0  0
   -2.8579   -4.9500    0.0000 C   0  0  0  0  0  0  0  0  0  0  0  0
   -0.0000   -4.1250    0.0000 C   0  0  0  0  0  0  0  0  0  0  0  0
    0.7145   -3.7125    0.0000 C   0  0  0  0  0  0  0  0  0  0  0  0
    1.4289   -4.1250    0.0000 C   0  0  0  0  0  0  0  0  0  0  0  0
    1.4289   -4.9500    0.0000 C   0  0  0  0  0  0  0  0  0  0  0  0
    2.1434   -5.3625    0.0000 F   0  0  0  0  0  0  0  0  0  0  0  0
    0.7145   -5.3625    0.0000 C   0  0  0  0  0  0  0  0  0  0  0  0
   -0.0000   -4.9500    0.0000 C   0  0  0  0  0  0  0  0  0  0  0  0
  1  2  1  0  0  0  0
  2  3  2  0  0  0  0
  2  7  1  0  0  0  0
  3  4  1  0  0  0  0
  4  5  2  0  0  0  0
  5  6  1  0  0  0  0
  5  8  1  0  0  0  0
  6  7  2  0  0  0  0
  8  9  1  0  0  0  0
  8 32  1  0  0  0  0
  9 10  1  0  0  0  0
 10 11  1  0  0  0  0
 11 12  1  0  0  0  0
 11 31  1  0  0  0  0
 12 13  1  0  0  0  0
 13 14  1  0  0  0  0
 14 15  1  0  0  0  0
 14 30  1  0  0  0  0
 15 16  1  0  0  0  0
 16 17  2  0  0  0  0
 16 29  1  0  0  0  0
 17 18  1  0  0  0  0
 18 19  1  0  0  0  0
 18 23  2  0  0  0  0
 19 20  1  0  0  0  0
 20 21  1  0  0  0  0
 21 22  2  0  0  0  0
 23 24  1  0  0  0  0
 24 25  1  0  0  0  0
 24 29  2  0  0  0  0
 25 26  1  0  0  0  0
 26 27  1  0  0  0  0
 27 28  2  0  0  0  0
 30 31  1  0  0  0  0
 32 33  2  0  0  0  0
 32 38  1  0  0  0  0
 33 34  1  0  0  0  0
 34 35  2  0  0  0  0
 35 36  1  0  0  0  0
 35 37  1  0  0  0  0
 37 38  2  0  0  0  0
M  END
$$$$

 OpenBabel12191814062D

 39 42  0  0  0  0  0  0  0  0999 V2000
    2.1434   -0.4125    0.0000 F   0  0  0  0  0  0  0  0  0  0  0  0
    2.1434   -1.2375    0.0000 C   0  0  0  0  0  0  0  0  0  0  0  0
    2.8579   -1.6500    0.0000 C   0  0  0  0  0  0  0  0  0  0  0  0
    2.8579   -2.4750    0.0000 C   0  0  0  0  0  0  0  0  0  0  0  0
    2.1434   -2.8875    0.0000 C   0  0  0  0  0  0  0  0  0  0  0  0
    1.4289   -2.4750    0.0000 C   0  0  0  0  0  0  0  0  0  0  0  0
    1.4289   -1.6500    0.0000 C   0  0  0  0  0  0  0  0  0  0  0  0
    2.1434   -3.7125    0.0000 C   0  0  0  0  0  0  0  0  0  0  0  0
    2.8579   -4.1250    0.0000 N   0  0  0  0  0  0  0  0  0  0  0  0
    3.5724   -3.7125    0.0000 C   0  0  0  0  0  0  0  0  0  0  0  0
    3.5724   -2.8875    0.0000 C   0  0  0  0  0  0  0  0  0  0  0  0
    4.2868   -2.4750    0.0000 C   0  0  0  0  0  0  0  0  0  0  0  0
    2.8579   -4.9500    0.0000 C   0  0  0  0  0  0  0  0  0  0  0  0
    3.5724   -5.3625    0.0000 C   0  0  0  0  0  0  0  0  0  0  0  0
    3.5724   -6.1875    0.0000 C   0  0  0  0  0  0  0  0  0  0  0  0
    2.8579   -6.6000    0.0000 N   0  0  0  0  0  0  0  0  0  0  0  0
    2.1434   -6.1875    0.0000 C   0  0  0  0  0  0  0  0  0  0  0  0
    2.1434   -5.3625    0.0000 C   0  0  0  0  0  0  0  0  0  0  0  0
    2.8579   -7.4250    0.0000 C   0  0  0  0  0  0  0  0  0  0  0  0
    3.5724   -7.8375    0.0000 N   0  0  0  0  0  0  0  0  0  0  0  0
    3.5724   -8.6625    0.0000 C   0  0  0  0  0  0  0  0  0  0  0  0
    4.2868   -9.0750    0.0000 N   0  0  0  0  0  0  0  0  0  0  0  0
    5.0013   -8.6625    0.0000 C   0  0  0  0  0  0  0  0  0  0  0  0
    5.7158   -9.0750    0.0000 C   0  0  0  0  0  0  0  0  0  0  0  0
    5.7158   -9.9000    0.0000 C   0  0  0  0  0  0  0  0  0  0  0  0
    2.8579   -9.0750    0.0000 N   0  0  0  0  0  0  0  0  0  0  0  0
    2.1434   -8.6625    0.0000 C   0  0  0  0  0  0  0  0  0  0  0  0
    1.4289   -9.0750    0.0000 N   0  0  0  0  0  0  0  0  0  0  0  0
    0.7145   -8.6625    0.0000 C   0  0  0  0  0  0  0  0  0  0  0  0
   -0.0000   -9.0750    0.0000 C   0  0  0  0  0  0  0  0  0  0  0  0
   -0.7145   -8.6625    0.0000 C   0  0  0  0  0  0  0  0  0  0  0  0
    2.1434   -7.8375    0.0000 N   0  0  0  0  0  0  0  0  0  0  0  0
    1.4289   -4.1250    0.0000 C   0  0  0  0  0  0  0  0  0  0  0  0
    1.4289   -4.9500    0.0000 C   0  0  0  0  0  0  0  0  0  0  0  0
    0.7145   -5.3625    0.0000 C   0  0  0  0  0  0  0  0  0  0  0  0
   -0.0000   -4.9500    0.0000 C   0  0  0  0  0  0  0  0  0  0  0  0
   -0.7145   -5.3625    0.0000 F   0  0  0  0  0  0  0  0  0  0  0  0
   -0.0000   -4.1250    0.0000 C   0  0  0  0  0  0  0  0  0  0  0  0
    0.7145   -3.7125    0.0000 C   0  0  0  0  0  0  0  0  0  0  0  0
  1  2  1  0  0  0  0
  2  3  2  0  0  0  0
  2  7  1  0  0  0  0
  3  4  1  0  0  0  0
  4  5  2  0  0  0  0
  5  6  1  0  0  0  0
  5  8  1  0  0  0  0
  6  7  2  0  0  0  0
  8  9  1  0  0  0  0
  8 33  1  0  0  0  0
  9 10  1  0  0  0  0
  9 13  1  0  0  0  0
 10 11  1  0  0  0  0
 11 12  2  0  0  0  0
 13 14  1  0  0  0  0
 13 18  1  0  0  0  0
 14 15  1  0  0  0  0
 15 16  1  0  0  0  0
 16 17  1  0  0  0  0
 16 19  1  0  0  0  0
 17 18  1  0  0  0  0
 19 20  2  0  0  0  0
 19 32  1  0  0  0  0
 20 21  1  0  0  0  0
 21 22  1  0  0  0  0
 21 26  2  0  0  0  0
 22 23  1  0  0  0  0
 23 24  1  0  0  0  0
 24 25  2  0  0  0  0
 26 27  1  0  0  0  0
 27 28  1  0  0  0  0
 27 32  2  0  0  0  0
 28 29  1  0  0  0  0
 29 30  1  0  0  0  0
 30 31  2  0  0  0  0
 33 34  2  0  0  0  0
 33 39  1  0  0  0  0
 34 35  1  0  0  0  0
 35 36  2  0  0  0  0
 36 37  1  0  0  0  0
 36 38  1  0  0  0  0
 38 39  2  0  0  0  0
M  END
$$$$

 OpenBabel12191814062D

 30 33  0  0  0  0  0  0  0  0999 V2000
   -0.7145   -0.4125    0.0000 F   0  0  0  0  0  0  0  0  0  0  0  0
   -0.7145   -1.2375    0.0000 C   0  0  0  0  0  0  0  0  0  0  0  0
    0.0000   -1.6500    0.0000 C   0  0  0  0  0  0  0  0  0  0  0  0
    0.0000   -2.4750    0.0000 C   0  0  0  0  0  0  0  0  0  0  0  0
   -0.7145   -2.8875    0.0000 C   0  0  0  0  0  0  0  0  0  0  0  0
   -1.4289   -2.4750    0.0000 C   0  0  0  0  0  0  0  0  0  0  0  0
   -1.4289   -1.6500    0.0000 C   0  0  0  0  0  0  0  0  0  0  0  0
   -0.7145   -3.7125    0.0000 C   0  0  0  0  0  0  0  0  0  0  0  0
   -1.4289   -4.1250    0.0000 N   0  0  0  0  0  0  0  0  0  0  0  0
   -1.4289   -4.9500    0.0000 C   0  0  0  0  0  0  0  0  0  0  0  0
   -2.1434   -5.3625    0.0000 C   0  0  0  0  0  0  0  0  0  0  0  0
   -2.8579   -4.9500    0.0000 N   0  0  0  0  0  0  0  0  0  0  0  0
   -3.5724   -5.3625    0.0000 C   0  0  0  0  0  0  0  0  0  0  0  0
   -4.2868   -4.9500    0.0000 C   0  0  0  0  0  0  0  0  0  0  0  0
   -5.0013   -5.3625    0.0000 C   0  0  0  0  0  0  0  0  0  0  0  0
   -5.7158   -4.9500    0.0000 C   0  0  0  0  0  0  0  0  0  0  0  0
   -6.4302   -5.3625    0.0000 C   0  0  0  0  0  0  0  0  0  0  0  0
   -7.1447   -4.9500    0.0000 C   0  0  0  0  0  0  0  0  0  0  0  0
   -7.1447   -4.1250    0.0000 C   0  0  0  0  0  0  0  0  0  0  0  0
   -6.4302   -3.7125    0.0000 C   0  0  0  0  0  0  0  0  0  0  0  0
   -5.7158   -4.1250    0.0000 C   0  0  0  0  0  0  0  0  0  0  0  0
   -2.8579   -4.1250    0.0000 C   0  0  0  0  0  0  0  0  0  0  0  0
   -2.1434   -3.7125    0.0000 C   0  0  0  0  0  0  0  0  0  0  0  0
   -0.0000   -4.1250    0.0000 C   0  0  0  0  0  0  0  0  0  0  0  0
    0.7145   -3.7125    0.0000 C   0  0  0  0  0  0  0  0  0  0  0  0
    1.4289   -4.1250    0.0000 C   0  0  0  0  0  0  0  0  0  0  0  0
    1.4289   -4.9500    0.0000 C   0  0  0  0  0  0  0  0  0  0  0  0
    2.1434   -5.3625    0.0000 F   0  0  0  0  0  0  0  0  0  0  0  0
    0.7145   -5.3625    0.0000 C   0  0  0  0  0  0  0  0  0  0  0  0
   -0.0000   -4.9500    0.0000 C   0  0  0  0  0  0  0  0  0  0  0  0
  1  2  1  0  0  0  0
  2  3  2  0  0  0  0
  2  7  1  0  0  0  0
  3  4  1  0  0  0  0
  4  5  2  0  0  0  0
  5  6  1  0  0  0  0
  5  8  1  0  0  0  0
  6  7  2  0  0  0  0
  8  9  1  0  0  0  0
  8 24  1  0  0  0  0
  9 10  1  0  0  0  0
  9 23  1  0  0  0  0
 10 11  1  0  0  0  0
 11 12  1  0  0  0  0
 12 13  1  0  0  0  0
 12 22  1  0  0  0  0
 13 14  1  0  0  0  0
 14 15  2  0  0  0  0
 15 16  1  0  0  0  0
 16 17  2  0  0  0  0
 16 21  1  0  0  0  0
 17 18  1  0  0  0  0
 18 19  2  0  0  0  0
 19 20  1  0  0  0  0
 20 21  2  0  0  0  0
 22 23  1  0  0  0  0
 24 25  2  0  0  0  0
 24 30  1  0  0  0  0
 25 26  1  0  0  0  0
 26 27  2  0  0  0  0
 27 28  1  0  0  0  0
 27 29  1  0  0  0  0
 29 30  2  0  0  0  0
M  END
$$$$

 OpenBabel12191814062D

 35 38  0  0  0  0  0  0  0  0999 V2000
   -0.7145   -0.4125    0.0000 F   0  0  0  0  0  0  0  0  0  0  0  0
   -0.7145   -1.2375    0.0000 C   0  0  0  0  0  0  0  0  0  0  0  0
    0.0000   -1.6500    0.0000 C   0  0  0  0  0  0  0  0  0  0  0  0
    0.0000   -2.4750    0.0000 C   0  0  0  0  0  0  0  0  0  0  0  0
   -0.7145   -2.8875    0.0000 C   0  0  0  0  0  0  0  0  0  0  0  0
   -1.4289   -2.4750    0.0000 C   0  0  0  0  0  0  0  0  0  0  0  0
   -1.4289   -1.6500    0.0000 C   0  0  0  0  0  0  0  0  0  0  0  0
   -0.7145   -3.7125    0.0000 C   0  0  0  0  0  0  0  0  0  0  0  0
   -1.4289   -4.1250    0.0000 N   0  0  0  0  0  0  0  0  0  0  0  0
   -1.4289   -4.9500    0.0000 C   0  0  0  0  0  0  0  0  0  0  0  0
   -2.1434   -5.3625    0.0000 C   0  0  0  0  0  0  0  0  0  0  0  0
   -2.8579   -4.9500    0.0000 N   0  0  0  0  0  0  0  0  0  0  0  0
   -2.8579   -4.1250    0.0000 C   0  0  0  0  0  0  0  0  0  0  0  0
   -2.1434   -3.7125    0.0000 C   0  0  0  0  0  0  0  0  0  0  0  0
   -3.5724   -5.3625    0.0000 C   0  0  0  0  0  0  0  0  0  0  0  0
   -3.5724   -6.1875    0.0000 N   0  0  0  0  0  0  0  0  0  0  0  0
   -4.2868   -6.6000    0.0000 C   0  0  0  0  0  0  0  0  0  0  0  0
   -4.2868   -7.4250    0.0000 N   0  0  0  0  0  0  0  0  0  0  0  0
   -3.5724   -7.8375    0.0000 C   0  0  0  0  0  0  0  0  0  0  0  0
   -3.5724   -8.6625    0.0000 C   0  0  0  0  0  0  0  0  0  0  0  0
   -2.8579   -9.0750    0.0000 C   0  0  0  0  0  0  0  0  0  0  0  0
   -5.0013   -6.1875    0.0000 N   0  0  0  0  0  0  0  0  0  0  0  0
   -5.0013   -5.3625    0.0000 C   0  0  0  0  0  0  0  0  0  0  0  0
   -5.7158   -4.9500    0.0000 N   0  0  0  0  0  0  0  0  0  0  0  0
   -5.7158   -4.1250    0.0000 C   0  0  0  0  0  0  0  0  0  0  0  0
   -6.4302   -3.7125    0.0000 C   0  0  0  0  0  0  0  0  0  0  0  0
   -6.4302   -2.8875    0.0000 C   0  0  0  0  0  0  0  0  0  0  0  0
   -4.2868   -4.9500    0.0000 N   0  0  0  0  0  0  0  0  0  0  0  0
   -0.0000   -4.1250    0.0000 C   0  0  0  0  0  0  0  0  0  0  0  0
    0.7145   -3.7125    0.0000 C   0  0  0  0  0  0  0  0  0  0  0  0
    1.4289   -4.1250    0.0000 C   0  0  0  0  0  0  0  0  0  0  0  0
    1.4289   -4.9500    0.0000 C   0  0  0  0  0  0  0  0  0  0  0  0
    2.1434   -5.3625    0.0000 F   0  0  0  0  0  0  0  0  0  0  0  0
    0.7145   -5.3625    0.0000 C   0  0  0  0  0  0  0  0  0  0  0  0
   -0.0000   -4.9500    0.0000 C   0  0  0  0  0  0  0  0  0  0  0  0
  1  2  1  0  0  0  0
  2  3  2  0  0  0  0
  2  7  1  0  0  0  0
  3  4  1  0  0  0  0
  4  5  2  0  0  0  0
  5  6  1  0  0  0  0
  5  8  1  0  0  0  0
  6  7  2  0  0  0  0
  8  9  1  0  0  0  0
  8 29  1  0  0  0  0
  9 10  1  0  0  0  0
  9 14  1  0  0  0  0
 10 11  1  0  0  0  0
 11 12  1  0  0  0  0
 12 13  1  0  0  0  0
 12 15  1  0  0  0  0
 13 14  1  0  0  0  0
 15 16  2  0  0  0  0
 15 28  1  0  0  0  0
 16 17  1  0  0  0  0
 17 18  1  0  0  0  0
 17 22  2  0  0  0  0
 18 19  1  0  0  0  0
 19 20  1  0  0  0  0
 20 21  2  0  0  0  0
 22 23  1  0  0  0  0
 23 24  1  0  0  0  0
 23 28  2  0  0  0  0
 24 25  1  0  0  0  0
 25 26  1  0  0  0  0
 26 27  2  0  0  0  0
 29 30  2  0  0  0  0
 29 35  1  0  0  0  0
 30 31  1  0  0  0  0
 31 32  2  0  0  0  0
 32 33  1  0  0  0  0
 32 34  1  0  0  0  0
 34 35  2  0  0  0  0
M  END
$$$$

 OpenBabel12191814062D

 36 39  0  0  0  0  0  0  0  0999 V2000
   -0.7145   -0.4125    0.0000 F   0  0  0  0  0  0  0  0  0  0  0  0
   -0.7145   -1.2375    0.0000 C   0  0  0  0  0  0  0  0  0  0  0  0
    0.0000   -1.6500    0.0000 C   0  0  0  0  0  0  0  0  0  0  0  0
    0.0000   -2.4750    0.0000 C   0  0  0  0  0  0  0  0  0  0  0  0
   -0.7145   -2.8875    0.0000 C   0  0  0  0  0  0  0  0  0  0  0  0
   -1.4289   -2.4750    0.0000 C   0  0  0  0  0  0  0  0  0  0  0  0
   -1.4289   -1.6500    0.0000 C   0  0  0  0  0  0  0  0  0  0  0  0
   -0.7145   -3.7125    0.0000 C   0  0  0  0  0  0  0  0  0  0  0  0
   -1.4289   -4.1250    0.0000 N   0  0  0  0  0  0  0  0  0  0  0  0
   -1.4289   -4.9500    0.0000 C   0  0  0  0  0  0  0  0  0  0  0  0
   -2.1434   -5.3625    0.0000 C   0  0  0  0  0  0  0  0  0  0  0  0
   -2.8579   -4.9500    0.0000 N   0  0  0  0  0  0  0  0  0  0  0  0
   -2.8579   -4.1250    0.0000 C   0  0  0  0  0  0  0  0  0  0  0  0
   -2.1434   -3.7125    0.0000 C   0  0  0  0  0  0  0  0  0  0  0  0
   -3.5724   -5.3625    0.0000 N   0  0  0  0  0  0  0  0  0  0  0  0
   -4.2868   -4.9500    0.0000 C   0  0  0  0  0  0  0  0  0  0  0  0
   -5.0013   -5.3625    0.0000 N   0  0  0  0  0  0  0  0  0  0  0  0
   -5.7158   -4.9500    0.0000 C   0  0  0  0  0  0  0  0  0  0  0  0
   -6.4302   -5.3625    0.0000 N   0  0  0  0  0  0  0  0  0  0  0  0
   -6.4302   -6.1875    0.0000 C   0  0  0  0  0  0  0  0  0  0  0  0
   -7.1447   -6.6000    0.0000 C   0  0  0  0  0  0  0  0  0  0  0  0
   -7.1447   -7.4250    0.0000 C   0  0  0  0  0  0  0  0  0  0  0  0
   -5.7158   -4.1250    0.0000 N   0  0  0  0  0  0  0  0  0  0  0  0
   -5.0013   -3.7125    0.0000 C   0  0  0  0  0  0  0  0  0  0  0  0
   -5.0013   -2.8875    0.0000 N   0  0  0  0  0  0  0  0  0  0  0  0
   -4.2868   -2.4750    0.0000 C   0  0  0  0  0  0  0  0  0  0  0  0
   -4.2868   -1.6500    0.0000 C   0  0  0  0  0  0  0  0  0  0  0  0
   -3.5724   -1.2375    0.0000 C   0  0  0  0  0  0  0  0  0  0  0  0
   -4.2868   -4.1250    0.0000 N   0  0  0  0  0  0  0  0  0  0  0  0
   -0.0000   -4.1250    0.0000 C   0  0  0  0  0  0  0  0  0  0  0  0
    0.7145   -3.7125    0.0000 C   0  0  0  0  0  0  0  0  0  0  0  0
    1.4289   -4.1250    0.0000 C   0  0  0  0  0  0  0  0  0  0  0  0
    1.4289   -4.9500    0.0000 C   0  0  0  0  0  0  0  0  0  0  0  0
    2.1434   -5.3625    0.0000 F   0  0  0  0  0  0  0  0  0  0  0  0
    0.7145   -5.3625    0.0000 C   0  0  0  0  0  0  0  0  0  0  0  0
   -0.0000   -4.9500    0.0000 C   0  0  0  0  0  0  0  0  0  0  0  0
  1  2  1  0  0  0  0
  2  3  2  0  0  0  0
  2  7  1  0  0  0  0
  3  4  1  0  0  0  0
  4  5  2  0  0  0  0
  5  6  1  0  0  0  0
  5  8  1  0  0  0  0
  6  7  2  0  0  0  0
  8  9  1  0  0  0  0
  8 30  1  0  0  0  0
  9 10  1  0  0  0  0
  9 14  1  0  0  0  0
 10 11  1  0  0  0  0
 11 12  1  0  0  0  0
 12 13  1  0  0  0  0
 12 15  1  0  0  0  0
 13 14  1  0  0  0  0
 15 16  1  0  0  0  0
 16 17  2  0  0  0  0
 16 29  1  0  0  0  0
 17 18  1  0  0  0  0
 18 19  1  0  0  0  0
 18 23  2  0  0  0  0
 19 20  1  0  0  0  0
 20 21  1  0  0  0  0
 21 22  2  0  0  0  0
 23 24  1  0  0  0  0
 24 25  1  0  0  0  0
 24 29  2  0  0  0  0
 25 26  1  0  0  0  0
 26 27  1  0  0  0  0
 27 28  2  0  0  0  0
 30 31  2  0  0  0  0
 30 36  1  0  0  0  0
 31 32  1  0  0  0  0
 32 33  2  0  0  0  0
 33 34  1  0  0  0  0
 33 35  1  0  0  0  0
 35 36  2  0  0  0  0
M  END
$$$$

 OpenBabel12191814062D

 36 39  0  0  0  0  0  0  0  0999 V2000
    2.1434   -0.4125    0.0000 F   0  0  0  0  0  0  0  0  0  0  0  0
    2.1434   -1.2375    0.0000 C   0  0  0  0  0  0  0  0  0  0  0  0
    2.8579   -1.6500    0.0000 C   0  0  0  0  0  0  0  0  0  0  0  0
    2.8579   -2.4750    0.0000 C   0  0  0  0  0  0  0  0  0  0  0  0
    2.1434   -2.8875    0.0000 C   0  0  0  0  0  0  0  0  0  0  0  0
    1.4289   -2.4750    0.0000 C   0  0  0  0  0  0  0  0  0  0  0  0
    1.4289   -1.6500    0.0000 C   0  0  0  0  0  0  0  0  0  0  0  0
    2.1434   -3.7125    0.0000 C   0  0  0  0  0  0  0  0  0  0  0  0
    2.8579   -4.1250    0.0000 N   0  0  0  0  0  0  0  0  0  0  0  0
    2.8579   -4.9500    0.0000 C   0  0  0  0  0  0  0  0  0  0  0  0
    3.5724   -5.3625    0.0000 C   0  0  0  0  0  0  0  0  0  0  0  0
    3.5724   -6.1875    0.0000 C   0  0  0  0  0  0  0  0  0  0  0  0
    2.8579   -6.6000    0.0000 N   0  0  0  0  0  0  0  0  0  0  0  0
    2.1434   -6.1875    0.0000 C   0  0  0  0  0  0  0  0  0  0  0  0
    2.1434   -5.3625    0.0000 C   0  0  0  0  0  0  0  0  0  0  0  0
    2.8579   -7.4250    0.0000 C   0  0  0  0  0  0  0  0  0  0  0  0
    3.5724   -7.8375    0.0000 N   0  0  0  0  0  0  0  0  0  0  0  0
    3.5724   -8.6625    0.0000 C   0  0  0  0  0  0  0  0  0  0  0  0
    4.2868   -9.0750    0.0000 N   0  0  0  0  0  0  0  0  0  0  0  0
    5.0013   -8.6625    0.0000 C   0  0  0  0  0  0  0  0  0  0  0  0
    5.7158   -9.0750    0.0000 C   0  0  0  0  0  0  0  0  0  0  0  0
    5.7158   -9.9000    0.0000 C   0  0  0  0  0  0  0  0  0  0  0  0
    2.8579   -9.0750    0.0000 N   0  0  0  0  0  0  0  0  0  0  0  0
    2.1434   -8.6625    0.0000 C   0  0  0  0  0  0  0  0  0  0  0  0
    1.4289   -9.0750    0.0000 N   0  0  0  0  0  0  0  0  0  0  0  0
    0.7145   -8.6625    0.0000 C   0  0  0  0  0  0  0  0  0  0  0  0
   -0.0000   -9.0750    0.0000 C   0  0  0  0  0  0  0  0  0  0  0  0
   -0.7145   -8.6625    0.0000 C   0  0  0  0  0  0  0  0  0  0  0  0
    2.1434   -7.8375    0.0000 N   0  0  0  0  0  0  0  0  0  0  0  0
    1.4289   -4.1250    0.0000 C   0  0  0  0  0  0  0  0  0  0  0  0
    1.4289   -4.9500    0.0000 C   0  0  0  0  0  0  0  0  0  0  0  0
    0.7145   -5.3625    0.0000 C   0  0  0  0  0  0  0  0  0  0  0  0
   -0.0000   -4.9500    0.0000 C   0  0  0  0  0  0  0  0  0  0  0  0
   -0.7145   -5.3625    0.0000 F   0  0  0  0  0  0  0  0  0  0  0  0
   -0.0000   -4.1250    0.0000 C   0  0  0  0  0  0  0  0  0  0  0  0
    0.7145   -3.7125    0.0000 C   0  0  0  0  0  0  0  0  0  0  0  0
  1  2  1  0  0  0  0
  2  3  2  0  0  0  0
  2  7  1  0  0  0  0
  3  4  1  0  0  0  0
  4  5  2  0  0  0  0
  5  6  1  0  0  0  0
  5  8  1  0  0  0  0
  6  7  2  0  0  0  0
  8  9  1  0  0  0  0
  8 30  1  0  0  0  0
  9 10  1  0  0  0  0
 10 11  1  0  0  0  0
 10 15  1  0  0  0  0
 11 12  1  0  0  0  0
 12 13  1  0  0  0  0
 13 14  1  0  0  0  0
 13 16  1  0  0  0  0
 14 15  1  0  0  0  0
 16 17  2  0  0  0  0
 16 29  1  0  0  0  0
 17 18  1  0  0  0  0
 18 19  1  0  0  0  0
 18 23  2  0  0  0  0
 19 20  1  0  0  0  0
 20 21  1  0  0  0  0
 21 22  2  0  0  0  0
 23 24  1  0  0  0  0
 24 25  1  0  0  0  0
 24 29  2  0  0  0  0
 25 26  1  0  0  0  0
 26 27  1  0  0  0  0
 27 28  2  0  0  0  0
 30 31  2  0  0  0  0
 30 36  1  0  0  0  0
 31 32  1  0  0  0  0
 32 33  2  0  0  0  0
 33 34  1  0  0  0  0
 33 35  1  0  0  0  0
 35 36  2  0  0  0  0
M  END
$$$$

 OpenBabel12191814062D

 33 36  0  0  0  0  0  0  0  0999 V2000
    2.1434   -0.4125    0.0000 F   0  0  0  0  0  0  0  0  0  0  0  0
    2.1434   -1.2375    0.0000 C   0  0  0  0  0  0  0  0  0  0  0  0
    2.8579   -1.6500    0.0000 C   0  0  0  0  0  0  0  0  0  0  0  0
    2.8579   -2.4750    0.0000 C   0  0  0  0  0  0  0  0  0  0  0  0
    2.1434   -2.8875    0.0000 C   0  0  0  0  0  0  0  0  0  0  0  0
    1.4289   -2.4750    0.0000 C   0  0  0  0  0  0  0  0  0  0  0  0
    1.4289   -1.6500    0.0000 C   0  0  0  0  0  0  0  0  0  0  0  0
    2.1434   -3.7125    0.0000 C   0  0  0  0  0  0  0  0  0  0  0  0
    2.8579   -4.1250    0.0000 O   0  0  0  0  0  0  0  0  0  0  0  0
    2.8579   -4.9500    0.0000 C   0  0  0  0  0  0  0  0  0  0  0  0
    3.5724   -5.3625    0.0000 C   0  0  0  0  0  0  0  0  0  0  0  0
    3.5724   -6.1875    0.0000 N   0  0  0  0  0  0  0  0  0  0  0  0
    4.2868   -6.6000    0.0000 C   0  0  0  0  0  0  0  0  0  0  0  0
    4.2868   -7.4250    0.0000 C   0  0  0  0  0  0  0  0  0  0  0  0
    3.5724   -7.8375    0.0000 N   0  0  0  0  0  0  0  0  0  0  0  0
    3.5724   -8.6625    0.0000 C   0  0  0  0  0  0  0  0  0  0  0  0
    2.8579   -9.0750    0.0000 C   0  0  0  0  0  0  0  0  0  0  0  0
    2.8579   -9.9000    0.0000 C   0  0  0  0  0  0  0  0  0  0  0  0
    3.5724  -10.3125    0.0000 C   0  0  0  0  0  0  0  0  0  0  0  0
    4.2868   -9.9000    0.0000 C   0  0  0  0  0  0  0  0  0  0  0  0
    5.0013  -10.3125    0.0000 C   0  0  0  0  0  0  0  0  0  0  0  0
    5.0013  -11.1375    0.0000 C   0  0  0  0  0  0  0  0  0  0  0  0
    4.2868  -11.5500    0.0000 C   0  0  0  0  0  0  0  0  0  0  0  0
    3.5724  -11.1375    0.0000 C   0  0  0  0  0  0  0  0  0  0  0  0
    2.8579   -7.4250    0.0000 C   0  0  0  0  0  0  0  0  0  0  0  0
    2.8579   -6.6000    0.0000 C   0  0  0  0  0  0  0  0  0  0  0  0
    1.4289   -4.1250    0.0000 C   0  0  0  0  0  0  0  0  0  0  0  0
    1.4289   -4.9500    0.0000 C   0  0  0  0  0  0  0  0  0  0  0  0
    0.7145   -5.3625    0.0000 C   0  0  0  0  0  0  0  0  0  0  0  0
   -0.0000   -4.9500    0.0000 C   0  0  0  0  0  0  0  0  0  0  0  0
   -0.7145   -5.3625    0.0000 F   0  0  0  0  0  0  0  0  0  0  0  0
   -0.0000   -4.1250    0.0000 C   0  0  0  0  0  0  0  0  0  0  0  0
    0.7145   -3.7125    0.0000 C   0  0  0  0  0  0  0  0  0  0  0  0
  1  2  1  0  0  0  0
  2  3  2  0  0  0  0
  2  7  1  0  0  0  0
  3  4  1  0  0  0  0
  4  5  2  0  0  0  0
  5  6  1  0  0  0  0
  5  8  1  0  0  0  0
  6  7  2  0  0  0  0
  8  9  1  0  0  0  0
  8 27  1  0  0  0  0
  9 10  1  0  0  0  0
 10 11  1  0  0  0  0
 11 12  1  0  0  0  0
 12 13  1  0  0  0  0
 12 26  1  0  0  0  0
 13 14  1  0  0  0  0
 14 15  1  0  0  0  0
 15 16  1  0  0  0  0
 15 25  1  0  0  0  0
 16 17  1  0  0  0  0
 17 18  1  0  0  0  0
 18 19  1  0  0  0  0
 19 20  2  0  0  0  0
 19 24  1  0  0  0  0
 20 21  1  0  0  0  0
 21 22  2  0  0  0  0
 22 23  1  0  0  0  0
 23 24  2  0  0  0  0
 25 26  1  0  0  0  0
 27 28  2  0  0  0  0
 27 33  1  0  0  0  0
 28 29  1  0  0  0  0
 29 30  2  0  0  0  0
 30 31  1  0  0  0  0
 30 32  1  0  0  0  0
 32 33  2  0  0  0  0
M  END
$$$$

 OpenBabel12191814062D

 24 27  0  0  0  0  0  0  0  0999 V2000
    1.9233    6.0604    0.0000 F   0  0  0  0  0  0  0  0  0  0  0  0
    2.6378    5.6479    0.0000 C   0  0  0  0  0  0  0  0  0  0  0  0
    3.3523    6.0604    0.0000 C   0  0  0  0  0  0  0  0  0  0  0  0
    4.0668    5.6479    0.0000 C   0  0  0  0  0  0  0  0  0  0  0  0
    4.0668    4.8229    0.0000 C   0  0  0  0  0  0  0  0  0  0  0  0
    3.3523    4.4104    0.0000 C   0  0  0  0  0  0  0  0  0  0  0  0
    2.6378    4.8229    0.0000 C   0  0  0  0  0  0  0  0  0  0  0  0
    4.7812    4.4104    0.0000 C   0  0  3  0  0  0  0  0  0  0  0  0
    5.4957    4.8229    0.0000 C   0  0  0  0  0  0  0  0  0  0  0  0
    6.2102    4.4104    0.0000 C   0  0  0  0  0  0  0  0  0  0  0  0
    6.2102    3.5854    0.0000 N   0  0  0  0  0  0  0  0  0  0  0  0
    5.4957    3.1729    0.0000 C   0  0  0  0  0  0  0  0  0  0  0  0
    4.7812    3.5854    0.0000 C   0  0  3  0  0  0  0  0  0  0  0  0
    4.0668    3.1729    0.0000 C   0  0  0  0  0  0  0  0  0  0  0  0
    4.0668    2.3479    0.0000 O   0  0  0  0  0  0  0  0  0  0  0  0
    3.3523    1.9354    0.0000 C   0  0  0  0  0  0  0  0  0  0  0  0
    3.3523    1.1104    0.0000 C   0  0  0  0  0  0  0  0  0  0  0  0
    2.6378    0.6979    0.0000 C   0  0  0  0  0  0  0  0  0  0  0  0
    1.9233    1.1104    0.0000 C   0  0  0  0  0  0  0  0  0  0  0  0
    1.1387    0.8555    0.0000 O   0  0  0  0  0  0  0  0  0  0  0  0
    0.6538    1.5229    0.0000 C   0  0  0  0  0  0  0  0  0  0  0  0
    1.1387    2.1904    0.0000 O   0  0  0  0  0  0  0  0  0  0  0  0
    1.9233    1.9354    0.0000 C   0  0  0  0  0  0  0  0  0  0  0  0
    2.6378    2.3479    0.0000 C   0  0  0  0  0  0  0  0  0  0  0  0
  1  2  1  0  0  0  0
  2  3  2  0  0  0  0
  2  7  1  0  0  0  0
  3  4  1  0  0  0  0
  4  5  2  0  0  0  0
  5  6  1  0  0  0  0
  5  8  1  0  0  0  0
  6  7  2  0  0  0  0
  8  9  1  0  0  0  0
  8 13  1  0  0  0  0
  9 10  1  0  0  0  0
 10 11  1  0  0  0  0
 11 12  1  0  0  0  0
 12 13  1  0  0  0  0
 13 14  1  0  0  0  0
 14 15  1  0  0  0  0
 15 16  1  0  0  0  0
 16 17  2  0  0  0  0
 16 24  1  0  0  0  0
 17 18  1  0  0  0  0
 18 19  2  0  0  0  0
 19 20  1  0  0  0  0
 19 23  1  0  0  0  0
 20 21  1  0  0  0  0
 21 22  1  0  0  0  0
 22 23  1  0  0  0  0
 23 24  2  0  0  0  0
M  END
$$$$

 OpenBabel12191814062D

 34 37  0  0  0  0  0  0  0  0999 V2000
   -4.2868   -2.4750    0.0000 F   0  0  0  0  0  0  0  0  0  0  0  0
   -3.5724   -2.8875    0.0000 C   0  0  0  0  0  0  0  0  0  0  0  0
   -2.8579   -2.4750    0.0000 C   0  0  0  0  0  0  0  0  0  0  0  0
   -2.1434   -2.8875    0.0000 C   0  0  0  0  0  0  0  0  0  0  0  0
   -2.1434   -3.7125    0.0000 C   0  0  0  0  0  0  0  0  0  0  0  0
   -2.8579   -4.1250    0.0000 C   0  0  0  0  0  0  0  0  0  0  0  0
   -3.5724   -3.7125    0.0000 C   0  0  0  0  0  0  0  0  0  0  0  0
   -1.4289   -4.1250    0.0000 N   0  0  0  0  0  0  0  0  0  0  0  0
   -0.7145   -3.7125    0.0000 C   0  0  0  0  0  0  0  0  0  0  0  0
   -0.0000   -4.1250    0.0000 C   0  0  0  0  0  0  0  0  0  0  0  0
   -0.0000   -4.9500    0.0000 N   0  0  0  0  0  0  0  0  0  0  0  0
    0.7145   -5.3625    0.0000 C   0  0  0  0  0  0  0  0  0  0  0  0
    1.4289   -4.9500    0.0000 C   0  0  0  0  0  0  0  0  0  0  0  0
    2.1434   -5.3625    0.0000 C   0  0  0  0  0  0  0  0  0  0  0  0
    2.8579   -4.9500    0.0000 C   0  0  0  0  0  0  0  0  0  0  0  0
    3.5724   -5.3625    0.0000 O   0  0  0  0  0  0  0  0  0  0  0  0
    4.2868   -4.9500    0.0000 C   0  0  0  0  0  0  0  0  0  0  0  0
    4.2868   -4.1250    0.0000 C   0  0  0  0  0  0  0  0  0  0  0  0
    5.0013   -3.7125    0.0000 C   0  0  0  0  0  0  0  0  0  0  0  0
    5.7158   -4.1250    0.0000 C   0  0  0  0  0  0  0  0  0  0  0  0
    5.7158   -4.9500    0.0000 C   0  0  0  0  0  0  0  0  0  0  0  0
    5.0013   -5.3625    0.0000 C   0  0  0  0  0  0  0  0  0  0  0  0
    5.0013   -6.1875    0.0000 C   0  0  0  0  0  0  0  0  0  0  0  0
    5.7158   -6.6000    0.0000 O   0  0  0  0  0  0  0  0  0  0  0  0
    4.2868   -6.6000    0.0000 C   0  0  0  0  0  0  0  0  0  0  0  0
    4.2868   -7.4250    0.0000 C   0  0  0  0  0  0  0  0  0  0  0  0
    5.0013   -7.8375    0.0000 C   0  0  0  0  0  0  0  0  0  0  0  0
    5.7158   -7.4250    0.0000 C   0  0  0  0  0  0  0  0  0  0  0  0
    6.4302   -7.8375    0.0000 C   0  0  0  0  0  0  0  0  0  0  0  0
    6.4302   -8.6625    0.0000 C   0  0  0  0  0  0  0  0  0  0  0  0
    5.7158   -9.0750    0.0000 C   0  0  0  0  0  0  0  0  0  0  0  0
    5.0013   -8.6625    0.0000 C   0  0  0  0  0  0  0  0  0  0  0  0
   -0.7145   -5.3625    0.0000 C   0  0  0  0  0  0  0  0  0  0  0  0
   -1.4289   -4.9500    0.0000 C   0  0  0  0  0  0  0  0  0  0  0  0
  1  2  1  0  0  0  0
  2  3  2  0  0  0  0
  2  7  1  0  0  0  0
  3  4  1  0  0  0  0
  4  5  2  0  0  0  0
  5  6  1  0  0  0  0
  5  8  1  0  0  0  0
  6  7  2  0  0  0  0
  8  9  1  0  0  0  0
  8 34  1  0  0  0  0
  9 10  1  0  0  0  0
 10 11  1  0  0  0  0
 11 12  1  0  0  0  0
 11 33  1  0  0  0  0
 12 13  1  0  0  0  0
 13 14  1  0  0  0  0
 14 15  1  0  0  0  0
 15 16  1  0  0  0  0
 16 17  1  0  0  0  0
 17 18  2  0  0  0  0
 17 22  1  0  0  0  0
 18 19  1  0  0  0  0
 19 20  2  0  0  0  0
 20 21  1  0  0  0  0
 21 22  2  0  0  0  0
 22 23  1  0  0  0  0
 23 24  2  0  0  0  0
 23 25  1  0  0  0  0
 25 26  1  0  0  0  0
 26 27  1  0  0  0  0
 27 28  2  0  0  0  0
 27 32  1  0  0  0  0
 28 29  1  0  0  0  0
 29 30  2  0  0  0  0
 30 31  1  0  0  0  0
 31 32  2  0  0  0  0
 33 34  1  0  0  0  0
M  END
$$$$

 OpenBabel12191814062D

 34 38  0  0  0  0  0  0  0  0999 V2000
    4.2868   -4.1250    0.0000 F   0  0  0  0  0  0  0  0  0  0  0  0
    3.5724   -3.7125    0.0000 C   0  0  0  0  0  0  0  0  0  0  0  0
    2.8579   -4.1250    0.0000 C   0  0  0  0  0  0  0  0  0  0  0  0
    2.1434   -3.7125    0.0000 C   0  0  0  0  0  0  0  0  0  0  0  0
    2.1434   -2.8875    0.0000 C   0  0  0  0  0  0  0  0  0  0  0  0
    1.4289   -2.4750    0.0000 C   0  0  0  0  0  0  0  0  0  0  0  0
    1.4289   -1.6500    0.0000 C   0  0  3  0  0  0  0  0  0  0  0  0
    0.7145   -1.2375    0.0000 N   0  0  0  0  0  0  0  0  0  0  0  0
    0.7145   -0.4125    0.0000 N   0  0  0  0  0  0  0  0  0  0  0  0
    0.0000    0.0000    0.0000 C   0  0  3  0  0  0  0  0  0  0  0  0
   -0.6816   -0.4647    0.0000 C   0  0  0  0  0  0  0  0  0  0  0  0
   -1.4700   -0.2216    0.0000 C   0  0  0  0  0  0  0  0  0  0  0  0
   -1.7714    0.5464    0.0000 C   0  0  0  0  0  0  0  0  0  0  0  0
   -1.3589    1.2609    0.0000 N   0  0  0  0  0  0  0  0  0  0  0  0
   -1.8236    1.9425    0.0000 C   0  0  0  0  0  0  0  0  0  0  0  0
   -2.6463    1.8809    0.0000 C   0  0  0  0  0  0  0  0  0  0  0  0
   -3.1111    2.5625    0.0000 C   0  0  0  0  0  0  0  0  0  0  0  0
   -3.9338    2.5009    0.0000 C   0  0  0  0  0  0  0  0  0  0  0  0
   -4.3985    3.1825    0.0000 C   0  0  0  0  0  0  0  0  0  0  0  0
   -4.0406    3.9258    0.0000 C   0  0  0  0  0  0  0  0  0  0  0  0
   -3.2179    3.9875    0.0000 C   0  0  0  0  0  0  0  0  0  0  0  0
   -2.7531    3.3058    0.0000 C   0  0  0  0  0  0  0  0  0  0  0  0
   -0.5431    1.3838    0.0000 C   0  0  0  0  0  0  0  0  0  0  0  0
    0.0617    0.8227    0.0000 C   0  0  0  0  0  0  0  0  0  0  0  0
    1.4289    0.0000    0.0000 C   0  0  0  0  0  0  0  0  0  0  0  0
    1.4289    0.8250    0.0000 O   0  0  0  0  0  0  0  0  0  0  0  0
    2.1434   -0.4125    0.0000 C   0  0  0  0  0  0  0  0  0  0  0  0
    2.8579    0.0000    0.0000 C   0  0  0  0  0  0  0  0  0  0  0  0
    3.5724   -0.4125    0.0000 C   0  0  0  0  0  0  0  0  0  0  0  0
    3.5724   -1.2375    0.0000 C   0  0  0  0  0  0  0  0  0  0  0  0
    2.8579   -1.6500    0.0000 C   0  0  0  0  0  0  0  0  0  0  0  0
    2.1434   -1.2375    0.0000 C   0  0  0  0  0  0  0  0  0  0  0  0
    2.8579   -2.4750    0.0000 C   0  0  0  0  0  0  0  0  0  0  0  0
    3.5724   -2.8875    0.0000 C   0  0  0  0  0  0  0  0  0  0  0  0
  1  2  1  0  0  0  0
  2  3  2  0  0  0  0
  2 34  1  0  0  0  0
  3  4  1  0  0  0  0
  4  5  2  0  0  0  0
  5  6  1  0  0  0  0
  5 33  1  0  0  0  0
  6  7  1  0  0  0  0
  7  8  1  0  0  0  0
  7 32  1  0  0  0  0
  8  9  1  0  0  0  0
  9 10  1  0  0  0  0
  9 25  1  0  0  0  0
 10 11  1  0  0  0  0
 10 24  1  0  0  0  0
 11 12  1  0  0  0  0
 12 13  1  0  0  0  0
 13 14  1  0  0  0  0
 14 15  1  0  0  0  0
 14 23  1  0  0  0  0
 15 16  1  0  0  0  0
 16 17  1  0  0  0  0
 17 18  2  0  0  0  0
 17 22  1  0  0  0  0
 18 19  1  0  0  0  0
 19 20  2  0  0  0  0
 20 21  1  0  0  0  0
 21 22  2  0  0  0  0
 23 24  1  0  0  0  0
 25 26  2  0  0  0  0
 25 27  1  0  0  0  0
 27 28  2  0  0  0  0
 27 32  1  0  0  0  0
 28 29  1  0  0  0  0
 29 30  2  0  0  0  0
 30 31  1  0  0  0  0
 31 32  2  0  0  0  0
 33 34  2  0  0  0  0
M  END
$$$$

 OpenBabel12191814062D

 27 30  0  0  0  0  0  0  0  0999 V2000
   -0.0517   -9.6532    0.0000 F   0  0  0  0  0  0  0  0  0  0  0  0
    0.2033   -8.8685    0.0000 C   0  0  0  0  0  0  0  0  0  0  0  0
   -0.3488   -8.2554    0.0000 C   0  0  0  0  0  0  0  0  0  0  0  0
   -0.0938   -7.4708    0.0000 C   0  0  0  0  0  0  0  0  0  0  0  0
    0.7132   -7.2993    0.0000 C   0  0  0  0  0  0  0  0  0  0  0  0
    0.9681   -6.5147    0.0000 C   0  0  0  0  0  0  0  0  0  0  0  0
    0.4161   -5.9016    0.0000 C   0  0  0  0  0  0  0  0  0  0  0  0
    0.6710   -5.1170    0.0000 C   0  0  0  0  0  0  0  0  0  0  0  0
    0.1190   -4.5039    0.0000 C   0  0  0  0  0  0  0  0  0  0  0  0
    0.3739   -3.7192    0.0000 N   0  0  0  0  0  0  0  0  0  0  0  0
   -0.1781   -3.1062    0.0000 C   0  0  0  0  0  0  0  0  0  0  0  0
    0.0768   -2.3215    0.0000 C   0  0  0  0  0  0  0  0  0  0  0  0
    0.8838   -2.1500    0.0000 C   0  0  0  0  0  0  0  0  0  0  0  0
    1.4358   -2.7631    0.0000 C   0  0  0  0  0  0  0  0  0  0  0  0
    1.1809   -3.5477    0.0000 C   0  0  0  0  0  0  0  0  0  0  0  0
    1.1387   -1.3654    0.0000 N   0  0  0  0  0  0  0  0  0  0  0  0
    0.6538   -0.6979    0.0000 C   0  0  0  0  0  0  0  0  0  0  0  0
   -0.1712   -0.6979    0.0000 O   0  0  0  0  0  0  0  0  0  0  0  0
    1.1387   -0.0305    0.0000 N   0  0  0  0  0  0  0  0  0  0  0  0
    1.9233   -0.2854    0.0000 C   0  0  0  0  0  0  0  0  0  0  0  0
    2.6378    0.1271    0.0000 C   0  0  0  0  0  0  0  0  0  0  0  0
    3.3523   -0.2854    0.0000 C   0  0  0  0  0  0  0  0  0  0  0  0
    3.3523   -1.1104    0.0000 C   0  0  0  0  0  0  0  0  0  0  0  0
    2.6378   -1.5229    0.0000 C   0  0  0  0  0  0  0  0  0  0  0  0
    1.9233   -1.1104    0.0000 C   0  0  0  0  0  0  0  0  0  0  0  0
    1.2652   -7.9124    0.0000 C   0  0  0  0  0  0  0  0  0  0  0  0
    1.0102   -8.6970    0.0000 C   0  0  0  0  0  0  0  0  0  0  0  0
  1  2  1  0  0  0  0
  2  3  2  0  0  0  0
  2 27  1  0  0  0  0
  3  4  1  0  0  0  0
  4  5  2  0  0  0  0
  5  6  1  0  0  0  0
  5 26  1  0  0  0  0
  6  7  1  0  0  0  0
  7  8  1  0  0  0  0
  8  9  1  0  0  0  0
  9 10  1  0  0  0  0
 10 11  1  0  0  0  0
 10 15  1  0  0  0  0
 11 12  1  0  0  0  0
 12 13  1  0  0  0  0
 13 14  1  0  0  0  0
 13 16  1  0  0  0  0
 14 15  1  0  0  0  0
 16 17  1  0  0  0  0
 16 25  1  0  0  0  0
 17 18  2  0  0  0  0
 17 19  1  0  0  0  0
 19 20  1  0  0  0  0
 20 21  2  0  0  0  0
 20 25  1  0  0  0  0
 21 22  1  0  0  0  0
 22 23  2  0  0  0  0
 23 24  1  0  0  0  0
 24 25  2  0  0  0  0
 26 27  2  0  0  0  0
M  END
$$$$

 OpenBabel12191814062D

 37 42  0  0  0  0  0  0  0  0999 V2000
    5.6284   -8.4526    0.0000 F   0  0  0  0  0  0  0  0  0  0  0  0
    5.3734   -7.6680    0.0000 C   0  0  0  0  0  0  0  0  0  0  0  0
    4.5665   -7.4964    0.0000 C   0  0  0  0  0  0  0  0  0  0  0  0
    4.3115   -6.7118    0.0000 C   0  0  0  0  0  0  0  0  0  0  0  0
    4.8636   -6.0987    0.0000 C   0  0  0  0  0  0  0  0  0  0  0  0
    4.6086   -5.3141    0.0000 C   0  0  0  0  0  0  0  0  0  0  0  0
    3.8017   -5.1426    0.0000 C   0  0  0  0  0  0  0  0  0  0  0  0
    3.5467   -4.3580    0.0000 N   0  0  0  0  0  0  0  0  0  0  0  0
    2.7397   -4.1864    0.0000 C   0  0  0  0  0  0  0  0  0  0  0  0
    2.4848   -3.4018    0.0000 C   0  0  0  0  0  0  0  0  0  0  0  0
    3.0368   -2.7887    0.0000 N   0  0  0  0  0  0  0  0  0  0  0  0
    3.8438   -2.9602    0.0000 C   0  0  0  0  0  0  0  0  0  0  0  0
    4.0987   -3.7449    0.0000 C   0  0  0  0  0  0  0  0  0  0  0  0
    2.7819   -2.0041    0.0000 C   0  0  0  0  0  0  0  0  0  0  0  0
    1.9749   -1.8326    0.0000 N   0  0  0  0  0  0  0  0  0  0  0  0
    1.7200   -1.0479    0.0000 C   0  0  0  0  0  0  0  0  0  0  0  0
    2.2720   -0.4349    0.0000 N   0  0  0  0  0  0  0  0  0  0  0  0
    3.0790   -0.6064    0.0000 C   0  0  0  0  0  0  0  0  0  0  0  0
    3.7464   -0.1215    0.0000 C   0  0  0  0  0  0  0  0  0  0  0  0
    3.7464    0.7035    0.0000 C   0  0  0  0  0  0  0  0  0  0  0  0
    3.7464    1.5285    0.0000 N   0  0  0  0  0  0  0  0  0  0  0  0
    4.4139   -0.6064    0.0000 C   0  0  0  0  0  0  0  0  0  0  0  0
    5.2208   -0.4349    0.0000 C   0  0  0  0  0  0  0  0  0  0  0  0
    5.7729   -1.0479    0.0000 C   0  0  0  0  0  0  0  0  0  0  0  0
    5.5179   -1.8326    0.0000 C   0  0  0  0  0  0  0  0  0  0  0  0
    4.7110   -2.0041    0.0000 C   0  0  0  0  0  0  0  0  0  0  0  0
    4.1589   -1.3910    0.0000 N   0  0  0  0  0  0  0  0  0  0  0  0
    3.3339   -1.3910    0.0000 C   0  0  0  0  0  0  0  0  0  0  0  0
    0.9130   -0.8764    0.0000 C   0  0  0  0  0  0  0  0  0  0  0  0
    0.3610   -1.4895    0.0000 C   0  0  0  0  0  0  0  0  0  0  0  0
   -0.4460   -1.3180    0.0000 C   0  0  0  0  0  0  0  0  0  0  0  0
   -0.7009   -0.5334    0.0000 N   0  0  0  0  0  0  0  0  0  0  0  0
   -0.1489    0.0797    0.0000 C   0  0  0  0  0  0  0  0  0  0  0  0
    0.6581   -0.0918    0.0000 C   0  0  0  0  0  0  0  0  0  0  0  0
    5.6705   -6.2703    0.0000 C   0  0  0  0  0  0  0  0  0  0  0  0
    5.9255   -7.0549    0.0000 C   0  0  0  0  0  0  0  0  0  0  0  0
    6.7324   -7.2264    0.0000 F   0  0  0  0  0  0  0  0  0  0  0  0
  1  2  1  0  0  0  0
  2  3  2  0  0  0  0
  2 36  1  0  0  0  0
  3  4  1  0  0  0  0
  4  5  2  0  0  0  0
  5  6  1  0  0  0  0
  5 35  1  0  0  0  0
  6  7  1  0  0  0  0
  7  8  1  0  0  0  0
  8  9  1  0  0  0  0
  8 13  1  0  0  0  0
  9 10  1  0  0  0  0
 10 11  1  0  0  0  0
 11 12  1  0  0  0  0
 11 14  1  0  0  0  0
 12 13  1  0  0  0  0
 14 15  2  0  0  0  0
 14 28  1  0  0  0  0
 15 16  1  0  0  0  0
 16 17  2  0  0  0  0
 16 29  1  0  0  0  0
 17 18  1  0  0  0  0
 18 19  1  0  0  0  0
 18 28  2  0  0  0  0
 19 20  1  0  0  0  0
 19 22  2  0  0  0  0
 20 21  3  0  0  0  0
 22 23  1  0  0  0  0
 22 27  1  0  0  0  0
 23 24  1  0  0  0  0
 24 25  1  0  0  0  0
 25 26  1  0  0  0  0
 26 27  1  0  0  0  0
 27 28  1  0  0  0  0
 29 30  2  0  0  0  0
 29 34  1  0  0  0  0
 30 31  1  0  0  0  0
 31 32  2  0  0  0  0
 32 33  1  0  0  0  0
 33 34  2  0  0  0  0
 35 36  2  0  0  0  0
 36 37  1  0  0  0  0
M  END
$$$$

 OpenBabel12191814062D

 31 35  0  0  0  0  0  0  0  0999 V2000
    5.6284   -8.4526    0.0000 F   0  0  0  0  0  0  0  0  0  0  0  0
    5.3734   -7.6680    0.0000 C   0  0  0  0  0  0  0  0  0  0  0  0
    4.5665   -7.4964    0.0000 C   0  0  0  0  0  0  0  0  0  0  0  0
    4.3115   -6.7118    0.0000 C   0  0  0  0  0  0  0  0  0  0  0  0
    4.8636   -6.0987    0.0000 C   0  0  0  0  0  0  0  0  0  0  0  0
    4.6086   -5.3141    0.0000 C   0  0  0  0  0  0  0  0  0  0  0  0
    3.8017   -5.1426    0.0000 C   0  0  0  0  0  0  0  0  0  0  0  0
    3.5467   -4.3580    0.0000 N   0  0  0  0  0  0  0  0  0  0  0  0
    2.7397   -4.1864    0.0000 C   0  0  0  0  0  0  0  0  0  0  0  0
    2.4848   -3.4018    0.0000 C   0  0  0  0  0  0  0  0  0  0  0  0
    3.0368   -2.7887    0.0000 N   0  0  0  0  0  0  0  0  0  0  0  0
    3.8438   -2.9602    0.0000 C   0  0  0  0  0  0  0  0  0  0  0  0
    4.0987   -3.7449    0.0000 C   0  0  0  0  0  0  0  0  0  0  0  0
    2.7819   -2.0041    0.0000 C   0  0  0  0  0  0  0  0  0  0  0  0
    1.9749   -1.8326    0.0000 N   0  0  0  0  0  0  0  0  0  0  0  0
    1.7200   -1.0479    0.0000 C   0  0  0  0  0  0  0  0  0  0  0  0
    2.2720   -0.4349    0.0000 N   0  0  0  0  0  0  0  0  0  0  0  0
    3.0790   -0.6064    0.0000 C   0  0  0  0  0  0  0  0  0  0  0  0
    3.7464   -0.1215    0.0000 C   0  0  0  0  0  0  0  0  0  0  0  0
    3.7464    0.7035    0.0000 C   0  0  0  0  0  0  0  0  0  0  0  0
    3.7464    1.5285    0.0000 N   0  0  0  0  0  0  0  0  0  0  0  0
    4.4139   -0.6064    0.0000 C   0  0  0  0  0  0  0  0  0  0  0  0
    5.2208   -0.4349    0.0000 C   0  0  0  0  0  0  0  0  0  0  0  0
    5.7729   -1.0479    0.0000 C   0  0  0  0  0  0  0  0  0  0  0  0
    5.5179   -1.8326    0.0000 C   0  0  0  0  0  0  0  0  0  0  0  0
    4.7110   -2.0041    0.0000 C   0  0  0  0  0  0  0  0  0  0  0  0
    4.1589   -1.3910    0.0000 N   0  0  0  0  0  0  0  0  0  0  0  0
    3.3339   -1.3910    0.0000 C   0  0  0  0  0  0  0  0  0  0  0  0
    5.6705   -6.2703    0.0000 C   0  0  0  0  0  0  0  0  0  0  0  0
    5.9255   -7.0549    0.0000 C   0  0  0  0  0  0  0  0  0  0  0  0
    6.7324   -7.2264    0.0000 F   0  0  0  0  0  0  0  0  0  0  0  0
  1  2  1  0  0  0  0
  2  3  2  0  0  0  0
  2 30  1  0  0  0  0
  3  4  1  0  0  0  0
  4  5  2  0  0  0  0
  5  6  1  0  0  0  0
  5 29  1  0  0  0  0
  6  7  1  0  0  0  0
  7  8  1  0  0  0  0
  8  9  1  0  0  0  0
  8 13  1  0  0  0  0
  9 10  1  0  0  0  0
 10 11  1  0  0  0  0
 11 12  1  0  0  0  0
 11 14  1  0  0  0  0
 12 13  1  0  0  0  0
 14 15  2  0  0  0  0
 14 28  1  0  0  0  0
 15 16  1  0  0  0  0
 16 17  2  0  0  0  0
 17 18  1  0  0  0  0
 18 19  1  0  0  0  0
 18 28  2  0  0  0  0
 19 20  1  0  0  0  0
 19 22  2  0  0  0  0
 20 21  3  0  0  0  0
 22 23  1  0  0  0  0
 22 27  1  0  0  0  0
 23 24  1  0  0  0  0
 24 25  1  0  0  0  0
 25 26  1  0  0  0  0
 26 27  1  0  0  0  0
 27 28  1  0  0  0  0
 29 30  2  0  0  0  0
 30 31  1  0  0  0  0
M  END
$$$$

 OpenBabel12191814062D

 38 43  0  0  0  0  0  0  0  0999 V2000
    5.6284   -8.4526    0.0000 F   0  0  0  0  0  0  0  0  0  0  0  0
    5.3734   -7.6680    0.0000 C   0  0  0  0  0  0  0  0  0  0  0  0
    4.5665   -7.4964    0.0000 C   0  0  0  0  0  0  0  0  0  0  0  0
    4.3115   -6.7118    0.0000 C   0  0  0  0  0  0  0  0  0  0  0  0
    4.8636   -6.0987    0.0000 C   0  0  0  0  0  0  0  0  0  0  0  0
    4.6086   -5.3141    0.0000 C   0  0  0  0  0  0  0  0  0  0  0  0
    3.8017   -5.1426    0.0000 C   0  0  0  0  0  0  0  0  0  0  0  0
    3.5467   -4.3580    0.0000 N   0  0  0  0  0  0  0  0  0  0  0  0
    2.7397   -4.1864    0.0000 C   0  0  0  0  0  0  0  0  0  0  0  0
    2.4848   -3.4018    0.0000 C   0  0  0  0  0  0  0  0  0  0  0  0
    3.0368   -2.7887    0.0000 N   0  0  0  0  0  0  0  0  0  0  0  0
    3.8438   -2.9602    0.0000 C   0  0  0  0  0  0  0  0  0  0  0  0
    4.0987   -3.7449    0.0000 C   0  0  0  0  0  0  0  0  0  0  0  0
    2.7819   -2.0041    0.0000 C   0  0  0  0  0  0  0  0  0  0  0  0
    1.9749   -1.8326    0.0000 N   0  0  0  0  0  0  0  0  0  0  0  0
    1.7200   -1.0479    0.0000 C   0  0  0  0  0  0  0  0  0  0  0  0
    2.2720   -0.4349    0.0000 N   0  0  0  0  0  0  0  0  0  0  0  0
    3.0790   -0.6064    0.0000 C   0  0  0  0  0  0  0  0  0  0  0  0
    3.7464   -0.1215    0.0000 C   0  0  0  0  0  0  0  0  0  0  0  0
    3.7464    0.7035    0.0000 C   0  0  0  0  0  0  0  0  0  0  0  0
    4.4609    1.1160    0.0000 O   0  0  0  0  0  0  0  0  0  0  0  0
    3.0320    1.1160    0.0000 N   0  0  0  0  0  0  0  0  0  0  0  0
    3.0320    1.9410    0.0000 C   0  0  0  0  0  0  0  0  0  0  0  0
    2.3175    2.3535    0.0000 C   0  0  0  0  0  0  0  0  0  0  0  0
    2.3175    3.1785    0.0000 C   0  0  0  0  0  0  0  0  0  0  0  0
    3.0320    3.5910    0.0000 C   0  0  0  0  0  0  0  0  0  0  0  0
    3.7464    3.1785    0.0000 N   0  0  0  0  0  0  0  0  0  0  0  0
    3.7464    2.3535    0.0000 C   0  0  0  0  0  0  0  0  0  0  0  0
    4.4139   -0.6064    0.0000 C   0  0  0  0  0  0  0  0  0  0  0  0
    5.2208   -0.4349    0.0000 C   0  0  0  0  0  0  0  0  0  0  0  0
    5.7729   -1.0479    0.0000 C   0  0  0  0  0  0  0  0  0  0  0  0
    5.5179   -1.8326    0.0000 C   0  0  0  0  0  0  0  0  0  0  0  0
    4.7110   -2.0041    0.0000 C   0  0  0  0  0  0  0  0  0  0  0  0
    4.1589   -1.3910    0.0000 N   0  0  0  0  0  0  0  0  0  0  0  0
    3.3339   -1.3910    0.0000 C   0  0  0  0  0  0  0  0  0  0  0  0
    5.6705   -6.2703    0.0000 C   0  0  0  0  0  0  0  0  0  0  0  0
    5.9255   -7.0549    0.0000 C   0  0  0  0  0  0  0  0  0  0  0  0
    6.7324   -7.2264    0.0000 F   0  0  0  0  0  0  0  0  0  0  0  0
  1  2  1  0  0  0  0
  2  3  2  0  0  0  0
  2 37  1  0  0  0  0
  3  4  1  0  0  0  0
  4  5  2  0  0  0  0
  5  6  1  0  0  0  0
  5 36  1  0  0  0  0
  6  7  1  0  0  0  0
  7  8  1  0  0  0  0
  8  9  1  0  0  0  0
  8 13  1  0  0  0  0
  9 10  1  0  0  0  0
 10 11  1  0  0  0  0
 11 12  1  0  0  0  0
 11 14  1  0  0  0  0
 12 13  1  0  0  0  0
 14 15  2  0  0  0  0
 14 35  1  0  0  0  0
 15 16  1  0  0  0  0
 16 17  2  0  0  0  0
 17 18  1  0  0  0  0
 18 19  1  0  0  0  0
 18 35  2  0  0  0  0
 19 20  1  0  0  0  0
 19 29  2  0  0  0  0
 20 21  2  0  0  0  0
 20 22  1  0  0  0  0
 22 23  1  0  0  0  0
 23 24  2  0  0  0  0
 23 28  1  0  0  0  0
 24 25  1  0  0  0  0
 25 26  2  0  0  0  0
 26 27  1  0  0  0  0
 27 28  2  0  0  0  0
 29 30  1  0  0  0  0
 29 34  1  0  0  0  0
 30 31  1  0  0  0  0
 31 32  1  0  0  0  0
 32 33  1  0  0  0  0
 33 34  1  0  0  0  0
 34 35  1  0  0  0  0
 36 37  2  0  0  0  0
 37 38  1  0  0  0  0
M  END
$$$$

 OpenBabel12191814062D

 39 44  0  0  0  0  0  0  0  0999 V2000
    5.6284   -8.4526    0.0000 F   0  0  0  0  0  0  0  0  0  0  0  0
    5.3734   -7.6680    0.0000 C   0  0  0  0  0  0  0  0  0  0  0  0
    4.5665   -7.4964    0.0000 C   0  0  0  0  0  0  0  0  0  0  0  0
    4.3115   -6.7118    0.0000 C   0  0  0  0  0  0  0  0  0  0  0  0
    4.8636   -6.0987    0.0000 C   0  0  0  0  0  0  0  0  0  0  0  0
    4.6086   -5.3141    0.0000 C   0  0  0  0  0  0  0  0  0  0  0  0
    3.8017   -5.1426    0.0000 C   0  0  0  0  0  0  0  0  0  0  0  0
    3.5467   -4.3580    0.0000 N   0  0  0  0  0  0  0  0  0  0  0  0
    2.7397   -4.1864    0.0000 C   0  0  0  0  0  0  0  0  0  0  0  0
    2.4848   -3.4018    0.0000 C   0  0  0  0  0  0  0  0  0  0  0  0
    3.0368   -2.7887    0.0000 N   0  0  0  0  0  0  0  0  0  0  0  0
    3.8438   -2.9602    0.0000 C   0  0  0  0  0  0  0  0  0  0  0  0
    4.0987   -3.7449    0.0000 C   0  0  0  0  0  0  0  0  0  0  0  0
    2.7819   -2.0041    0.0000 C   0  0  0  0  0  0  0  0  0  0  0  0
    1.9749   -1.8326    0.0000 N   0  0  0  0  0  0  0  0  0  0  0  0
    1.7200   -1.0479    0.0000 C   0  0  0  0  0  0  0  0  0  0  0  0
    2.2720   -0.4349    0.0000 N   0  0  0  0  0  0  0  0  0  0  0  0
    3.0790   -0.6064    0.0000 C   0  0  0  0  0  0  0  0  0  0  0  0
    3.7464   -0.1215    0.0000 C   0  0  0  0  0  0  0  0  0  0  0  0
    3.7464    0.7035    0.0000 C   0  0  0  0  0  0  0  0  0  0  0  0
    3.0320    1.1160    0.0000 O   0  0  0  0  0  0  0  0  0  0  0  0
    4.4609    1.1160    0.0000 N   0  0  0  0  0  0  0  0  0  0  0  0
    4.4609    1.9410    0.0000 C   0  0  0  0  0  0  0  0  0  0  0  0
    3.7464    2.3535    0.0000 C   0  0  0  0  0  0  0  0  0  0  0  0
    3.0320    1.9410    0.0000 C   0  0  0  0  0  0  0  0  0  0  0  0
    2.3175    2.3535    0.0000 C   0  0  0  0  0  0  0  0  0  0  0  0
    2.3175    3.1785    0.0000 C   0  0  0  0  0  0  0  0  0  0  0  0
    3.0320    3.5910    0.0000 C   0  0  0  0  0  0  0  0  0  0  0  0
    3.7464    3.1785    0.0000 N   0  0  0  0  0  0  0  0  0  0  0  0
    4.4139   -0.6064    0.0000 C   0  0  0  0  0  0  0  0  0  0  0  0
    5.2208   -0.4349    0.0000 C   0  0  0  0  0  0  0  0  0  0  0  0
    5.7729   -1.0479    0.0000 C   0  0  0  0  0  0  0  0  0  0  0  0
    5.5179   -1.8326    0.0000 C   0  0  0  0  0  0  0  0  0  0  0  0
    4.7110   -2.0041    0.0000 C   0  0  0  0  0  0  0  0  0  0  0  0
    4.1589   -1.3910    0.0000 N   0  0  0  0  0  0  0  0  0  0  0  0
    3.3339   -1.3910    0.0000 C   0  0  0  0  0  0  0  0  0  0  0  0
    5.6705   -6.2703    0.0000 C   0  0  0  0  0  0  0  0  0  0  0  0
    5.9255   -7.0549    0.0000 C   0  0  0  0  0  0  0  0  0  0  0  0
    6.7324   -7.2264    0.0000 F   0  0  0  0  0  0  0  0  0  0  0  0
  1  2  1  0  0  0  0
  2  3  2  0  0  0  0
  2 38  1  0  0  0  0
  3  4  1  0  0  0  0
  4  5  2  0  0  0  0
  5  6  1  0  0  0  0
  5 37  1  0  0  0  0
  6  7  1  0  0  0  0
  7  8  1  0  0  0  0
  8  9  1  0  0  0  0
  8 13  1  0  0  0  0
  9 10  1  0  0  0  0
 10 11  1  0  0  0  0
 11 12  1  0  0  0  0
 11 14  1  0  0  0  0
 12 13  1  0  0  0  0
 14 15  2  0  0  0  0
 14 36  1  0  0  0  0
 15 16  1  0  0  0  0
 16 17  2  0  0  0  0
 17 18  1  0  0  0  0
 18 19  1  0  0  0  0
 18 36  2  0  0  0  0
 19 20  1  0  0  0  0
 19 30  2  0  0  0  0
 20 21  2  0  0  0  0
 20 22  1  0  0  0  0
 22 23  1  0  0  0  0
 23 24  1  0  0  0  0
 24 25  2  0  0  0  0
 24 29  1  0  0  0  0
 25 26  1  0  0  0  0
 26 27  2  0  0  0  0
 27 28  1  0  0  0  0
 28 29  2  0  0  0  0
 30 31  1  0  0  0  0
 30 35  1  0  0  0  0
 31 32  1  0  0  0  0
 32 33  1  0  0  0  0
 33 34  1  0  0  0  0
 34 35  1  0  0  0  0
 35 36  1  0  0  0  0
 37 38  2  0  0  0  0
 38 39  1  0  0  0  0
M  END
$$$$

 OpenBabel12191814062D

 28 31  0  0  0  0  0  0  0  0999 V2000
    8.6945    1.8414    0.0000 F   0  0  0  0  0  0  0  0  0  0  0  0
    7.8695    1.8414    0.0000 C   0  0  0  0  0  0  0  0  0  0  0  0
    7.4570    1.1270    0.0000 C   0  0  0  0  0  0  0  0  0  0  0  0
    6.6320    1.1270    0.0000 C   0  0  0  0  0  0  0  0  0  0  0  0
    6.2195    1.8414    0.0000 C   0  0  0  0  0  0  0  0  0  0  0  0
    5.3945    1.8414    0.0000 O   0  0  0  0  0  0  0  0  0  0  0  0
    4.9820    1.1270    0.0000 C   0  0  0  0  0  0  0  0  0  0  0  0
    4.1570    1.1270    0.0000 C   0  0  0  0  0  0  0  0  0  0  0  0
    3.7445    0.4125    0.0000 C   0  0  0  0  0  0  0  0  0  0  0  0
    2.9195    0.4125    0.0000 N   0  0  0  0  0  0  0  0  0  0  0  0
    2.5070   -0.3020    0.0000 C   0  0  0  0  0  0  0  0  0  0  0  0
    1.6820   -0.3020    0.0000 C   0  0  0  0  0  0  0  0  0  0  0  0
    1.2695    0.4125    0.0000 C   0  0  0  0  0  0  0  0  0  0  0  0
    1.6820    1.1270    0.0000 C   0  0  0  0  0  0  0  0  0  0  0  0
    2.5070    1.1270    0.0000 C   0  0  0  0  0  0  0  0  0  0  0  0
    0.7846   -0.2549    0.0000 N   0  0  0  0  0  0  0  0  0  0  0  0
    0.0000   -0.0000    0.0000 C   0  0  0  0  0  0  0  0  0  0  0  0
   -0.0000    0.8250    0.0000 N   0  0  0  0  0  0  0  0  0  0  0  0
    0.7846    1.0799    0.0000 C   0  0  0  0  0  0  0  0  0  0  0  0
    1.0396    1.8646    0.0000 O   0  0  0  0  0  0  0  0  0  0  0  0
    1.0396   -1.0396    0.0000 C   0  0  0  0  0  0  0  0  0  0  0  0
    1.8465   -1.2111    0.0000 C   0  0  0  0  0  0  0  0  0  0  0  0
    2.1015   -1.9957    0.0000 C   0  0  0  0  0  0  0  0  0  0  0  0
    1.5494   -2.6088    0.0000 C   0  0  0  0  0  0  0  0  0  0  0  0
    0.7425   -2.4373    0.0000 C   0  0  0  0  0  0  0  0  0  0  0  0
    0.4875   -1.6527    0.0000 C   0  0  0  0  0  0  0  0  0  0  0  0
    6.6320    2.5559    0.0000 C   0  0  0  0  0  0  0  0  0  0  0  0
    7.4570    2.5559    0.0000 C   0  0  0  0  0  0  0  0  0  0  0  0
  1  2  1  0  0  0  0
  2  3  2  0  0  0  0
  2 28  1  0  0  0  0
  3  4  1  0  0  0  0
  4  5  2  0  0  0  0
  5  6  1  0  0  0  0
  5 27  1  0  0  0  0
  6  7  1  0  0  0  0
  7  8  1  0  0  0  0
  8  9  1  0  0  0  0
  9 10  1  0  0  0  0
 10 11  1  0  0  0  0
 10 15  1  0  0  0  0
 11 12  1  0  0  0  0
 12 13  1  0  0  0  0
 13 14  1  0  0  0  0
 13 16  1  0  0  0  0
 13 19  1  0  0  0  0
 14 15  1  0  0  0  0
 16 17  1  0  0  0  0
 16 21  1  0  0  0  0
 17 18  1  0  0  0  0
 18 19  1  0  0  0  0
 19 20  2  0  0  0  0
 21 22  2  0  0  0  0
 21 26  1  0  0  0  0
 22 23  1  0  0  0  0
 23 24  2  0  0  0  0
 24 25  1  0  0  0  0
 25 26  2  0  0  0  0
 27 28  2  0  0  0  0
M  END
$$$$

 OpenBabel12191814062D

 30 34  0  0  0  0  0  0  0  0999 V2000
   -0.3924   -2.3162    0.0000 I   0  0  0  0  0  0  0  0  0  0  0  0
    0.4146   -2.1447    0.0000 C   0  0  0  0  0  0  0  0  0  0  0  0
    0.6695   -1.3601    0.0000 N   0  0  0  0  0  0  0  0  0  0  0  0
    1.4765   -1.1885    0.0000 C   0  0  0  0  0  0  0  0  0  0  0  0
    1.7314   -0.4039    0.0000 N   0  0  0  0  0  0  0  0  0  0  0  0
    1.1794    0.2092    0.0000 C   0  0  0  0  0  0  0  0  0  0  0  0
    1.4343    0.9938    0.0000 C   0  0  0  0  0  0  0  0  0  0  0  0
    2.2413    1.1653    0.0000 N   0  0  0  0  0  0  0  0  0  0  0  0
    2.4963    1.9500    0.0000 C   0  0  0  0  0  0  0  0  0  0  0  0
    3.3032    2.1215    0.0000 C   0  0  0  0  0  0  0  0  0  0  0  0
    3.5582    2.9061    0.0000 C   0  0  0  0  0  0  0  0  0  0  0  0
    3.0061    3.5192    0.0000 C   0  0  0  0  0  0  0  0  0  0  0  0
    3.2611    4.3038    0.0000 C   0  0  0  0  0  0  0  0  0  0  0  0
    4.0680    4.4754    0.0000 C   0  0  0  0  0  0  0  0  0  0  0  0
    4.6201    3.8623    0.0000 C   0  0  0  0  0  0  0  0  0  0  0  0
    4.3651    3.0776    0.0000 C   0  0  0  0  0  0  0  0  0  0  0  0
    2.7933    0.5522    0.0000 C   0  0  0  0  0  0  0  0  0  0  0  0
    2.5384   -0.2324    0.0000 C   0  0  0  0  0  0  0  0  0  0  0  0
    2.0285   -1.8016    0.0000 C   0  0  0  0  0  0  0  0  0  0  0  0
    2.8535   -1.8016    0.0000 N   0  0  0  0  0  0  0  0  0  0  0  0
    3.4056   -1.1885    0.0000 C   0  0  0  0  0  0  0  0  0  0  0  0
    4.2125   -1.3601    0.0000 C   0  0  0  0  0  0  0  0  0  0  0  0
    4.4675   -2.1447    0.0000 C   0  0  0  0  0  0  0  0  0  0  0  0
    3.9154   -2.7578    0.0000 C   0  0  0  0  0  0  0  0  0  0  0  0
    3.1085   -2.5862    0.0000 C   0  0  0  0  0  0  0  0  0  0  0  0
    2.4410   -3.0712    0.0000 C   0  0  0  0  0  0  0  0  0  0  0  0
    2.4410   -3.8962    0.0000 C   0  0  0  0  0  0  0  0  0  0  0  0
    2.4410   -4.7212    0.0000 N   0  0  0  0  0  0  0  0  0  0  0  0
    1.7736   -2.5862    0.0000 C   0  0  0  0  0  0  0  0  0  0  0  0
    0.9666   -2.7578    0.0000 N   0  0  0  0  0  0  0  0  0  0  0  0
  1  2  1  0  0  0  0
  2  3  2  0  0  0  0
  2 30  1  0  0  0  0
  3  4  1  0  0  0  0
  4  5  1  0  0  0  0
  4 19  2  0  0  0  0
  5  6  1  0  0  0  0
  5 18  1  0  0  0  0
  6  7  1  0  0  0  0
  7  8  1  0  0  0  0
  8  9  1  0  0  0  0
  8 17  1  0  0  0  0
  9 10  1  0  0  0  0
 10 11  1  0  0  0  0
 11 12  2  0  0  0  0
 11 16  1  0  0  0  0
 12 13  1  0  0  0  0
 13 14  2  0  0  0  0
 14 15  1  0  0  0  0
 15 16  2  0  0  0  0
 17 18  1  0  0  0  0
 19 20  1  0  0  0  0
 19 29  1  0  0  0  0
 20 21  1  0  0  0  0
 20 25  1  0  0  0  0
 21 22  1  0  0  0  0
 22 23  1  0  0  0  0
 23 24  1  0  0  0  0
 24 25  1  0  0  0  0
 25 26  2  0  0  0  0
 26 27  1  0  0  0  0
 26 29  1  0  0  0  0
 27 28  3  0  0  0  0
 29 30  2  0  0  0  0
M  END
$$$$

 OpenBabel12191814062D

 35 40  0  0  0  0  0  0  0  0999 V2000
    1.9339    3.1605    0.0000 N   0  0  0  0  0  0  0  0  0  0  0  0
    1.9339    2.3355    0.0000 C   0  0  0  0  0  0  0  0  0  0  0  0
    1.9339    1.5105    0.0000 C   0  0  0  0  0  0  0  0  0  0  0  0
    2.6014    1.0256    0.0000 C   0  0  0  0  0  0  0  0  0  0  0  0
    3.4084    1.1971    0.0000 C   0  0  0  0  0  0  0  0  0  0  0  0
    3.9604    0.5840    0.0000 C   0  0  0  0  0  0  0  0  0  0  0  0
    3.7054   -0.2006    0.0000 C   0  0  0  0  0  0  0  0  0  0  0  0
    2.8985   -0.3721    0.0000 C   0  0  0  0  0  0  0  0  0  0  0  0
    2.3464    0.2410    0.0000 N   0  0  0  0  0  0  0  0  0  0  0  0
    1.5214    0.2410    0.0000 C   0  0  0  0  0  0  0  0  0  0  0  0
    0.9694   -0.3721    0.0000 C   0  0  0  0  0  0  0  0  0  0  0  0
    0.1624   -0.2006    0.0000 N   0  0  0  0  0  0  0  0  0  0  0  0
   -0.0925    0.5840    0.0000 C   0  0  0  0  0  0  0  0  0  0  0  0
    0.4595    1.1971    0.0000 N   0  0  0  0  0  0  0  0  0  0  0  0
    1.2665    1.0256    0.0000 C   0  0  0  0  0  0  0  0  0  0  0  0
   -0.8995    0.7556    0.0000 C   0  0  0  0  0  0  0  0  0  0  0  0
   -1.4515    0.1425    0.0000 C   0  0  0  0  0  0  0  0  0  0  0  0
   -2.2585    0.3140    0.0000 C   0  0  0  0  0  0  0  0  0  0  0  0
   -2.5134    1.0986    0.0000 C   0  0  0  0  0  0  0  0  0  0  0  0
   -1.9614    1.7117    0.0000 C   0  0  0  0  0  0  0  0  0  0  0  0
   -1.1544    1.5402    0.0000 C   0  0  0  0  0  0  0  0  0  0  0  0
    1.2243   -1.1567    0.0000 N   0  0  0  0  0  0  0  0  0  0  0  0
    2.0313   -1.3283    0.0000 C   0  0  0  0  0  0  0  0  0  0  0  0
    2.2863   -2.1129    0.0000 C   0  0  0  0  0  0  0  0  0  0  0  0
    1.7342   -2.7260    0.0000 N   0  0  0  0  0  0  0  0  0  0  0  0
    1.9892   -3.5106    0.0000 C   0  0  0  0  0  0  0  0  0  0  0  0
    2.7961   -3.6821    0.0000 C   0  0  0  0  0  0  0  0  0  0  0  0
    3.0511   -4.4668    0.0000 C   0  0  0  0  0  0  0  0  0  0  0  0
    3.8580   -4.6383    0.0000 C   0  0  0  0  0  0  0  0  0  0  0  0
    4.1130   -5.4229    0.0000 C   0  0  0  0  0  0  0  0  0  0  0  0
    3.5610   -6.0360    0.0000 C   0  0  0  0  0  0  0  0  0  0  0  0
    2.7540   -5.8645    0.0000 C   0  0  0  0  0  0  0  0  0  0  0  0
    2.4990   -5.0799    0.0000 C   0  0  0  0  0  0  0  0  0  0  0  0
    0.9273   -2.5545    0.0000 C   0  0  0  0  0  0  0  0  0  0  0  0
    0.6723   -1.7698    0.0000 C   0  0  0  0  0  0  0  0  0  0  0  0
  1  2  3  0  0  0  0
  2  3  1  0  0  0  0
  3  4  2  0  0  0  0
  3 15  1  0  0  0  0
  4  5  1  0  0  0  0
  4  9  1  0  0  0  0
  5  6  1  0  0  0  0
  6  7  1  0  0  0  0
  7  8  1  0  0  0  0
  8  9  1  0  0  0  0
  9 10  1  0  0  0  0
 10 11  2  0  0  0  0
 10 15  1  0  0  0  0
 11 12  1  0  0  0  0
 11 22  1  0  0  0  0
 12 13  2  0  0  0  0
 13 14  1  0  0  0  0
 13 16  1  0  0  0  0
 14 15  2  0  0  0  0
 16 17  2  0  0  0  0
 16 21  1  0  0  0  0
 17 18  1  0  0  0  0
 18 19  2  0  0  0  0
 19 20  1  0  0  0  0
 20 21  2  0  0  0  0
 22 23  1  0  0  0  0
 22 35  1  0  0  0  0
 23 24  1  0  0  0  0
 24 25  1  0  0  0  0
 25 26  1  0  0  0  0
 25 34  1  0  0  0  0
 26 27  1  0  0  0  0
 27 28  1  0  0  0  0
 28 29  2  0  0  0  0
 28 33  1  0  0  0  0
 29 30  1  0  0  0  0
 30 31  2  0  0  0  0
 31 32  1  0  0  0  0
 32 33  2  0  0  0  0
 34 35  1  0  0  0  0
M  END
$$$$

 OpenBabel12191814062D

 24 27  0  0  0  0  0  0  0  0999 V2000
    1.9339    3.1605    0.0000 N   0  0  0  0  0  0  0  0  0  0  0  0
    1.9339    2.3355    0.0000 C   0  0  0  0  0  0  0  0  0  0  0  0
    1.9339    1.5105    0.0000 C   0  0  0  0  0  0  0  0  0  0  0  0
    2.6014    1.0256    0.0000 C   0  0  0  0  0  0  0  0  0  0  0  0
    3.4084    1.1971    0.0000 C   0  0  0  0  0  0  0  0  0  0  0  0
    3.9604    0.5840    0.0000 C   0  0  0  0  0  0  0  0  0  0  0  0
    3.7054   -0.2006    0.0000 C   0  0  0  0  0  0  0  0  0  0  0  0
    2.8985   -0.3721    0.0000 C   0  0  0  0  0  0  0  0  0  0  0  0
    2.3464    0.2410    0.0000 N   0  0  0  0  0  0  0  0  0  0  0  0
    1.5214    0.2410    0.0000 C   0  0  0  0  0  0  0  0  0  0  0  0
    0.9694   -0.3721    0.0000 C   0  0  0  0  0  0  0  0  0  0  0  0
    1.2243   -1.1567    0.0000 N   0  0  0  0  0  0  0  0  0  0  0  0
    0.6723   -1.7698    0.0000 C   0  0  0  0  0  0  0  0  0  0  0  0
    0.9273   -2.5545    0.0000 C   0  0  0  0  0  0  0  0  0  0  0  0
    0.3752   -3.1676    0.0000 C   0  0  0  0  0  0  0  0  0  0  0  0
    0.6302   -3.9522    0.0000 C   0  0  0  0  0  0  0  0  0  0  0  0
    0.0781   -4.5653    0.0000 C   0  0  0  0  0  0  0  0  0  0  0  0
   -0.7288   -4.3937    0.0000 C   0  0  0  0  0  0  0  0  0  0  0  0
   -0.9838   -3.6091    0.0000 C   0  0  0  0  0  0  0  0  0  0  0  0
   -0.4317   -2.9960    0.0000 C   0  0  0  0  0  0  0  0  0  0  0  0
    0.1624   -0.2006    0.0000 N   0  0  0  0  0  0  0  0  0  0  0  0
   -0.0925    0.5840    0.0000 C   0  0  0  0  0  0  0  0  0  0  0  0
    0.4595    1.1971    0.0000 N   0  0  0  0  0  0  0  0  0  0  0  0
    1.2665    1.0256    0.0000 C   0  0  0  0  0  0  0  0  0  0  0  0
  1  2  3  0  0  0  0
  2  3  1  0  0  0  0
  3  4  2  0  0  0  0
  3 24  1  0  0  0  0
  4  5  1  0  0  0  0
  4  9  1  0  0  0  0
  5  6  1  0  0  0  0
  6  7  1  0  0  0  0
  7  8  1  0  0  0  0
  8  9  1  0  0  0  0
  9 10  1  0  0  0  0
 10 11  2  0  0  0  0
 10 24  1  0  0  0  0
 11 12  1  0  0  0  0
 11 21  1  0  0  0  0
 12 13  1  0  0  0  0
 13 14  1  0  0  0  0
 14 15  1  0  0  0  0
 15 16  2  0  0  0  0
 15 20  1  0  0  0  0
 16 17  1  0  0  0  0
 17 18  2  0  0  0  0
 18 19  1  0  0  0  0
 19 20  2  0  0  0  0
 21 22  2  0  0  0  0
 22 23  1  0  0  0  0
 23 24  2  0  0  0  0
M  END
$$$$

 OpenBabel12191814062D

 32 37  0  0  0  0  0  0  0  0999 V2000
  -10.0499   -9.0540    0.0000 N   0  0  0  0  0  0  0  0  0  0  0  0
   -9.5650   -8.3866    0.0000 C   0  0  0  0  0  0  0  0  0  0  0  0
   -9.0800   -7.7191    0.0000 C   0  0  0  0  0  0  0  0  0  0  0  0
   -9.3350   -6.9345    0.0000 C   0  0  0  0  0  0  0  0  0  0  0  0
  -10.0886   -6.5989    0.0000 C   0  0  0  0  0  0  0  0  0  0  0  0
  -10.1749   -5.7785    0.0000 C   0  0  0  0  0  0  0  0  0  0  0  0
   -9.5074   -5.2935    0.0000 C   0  0  0  0  0  0  0  0  0  0  0  0
   -8.7538   -5.6291    0.0000 C   0  0  0  0  0  0  0  0  0  0  0  0
   -8.6675   -6.4496    0.0000 N   0  0  0  0  0  0  0  0  0  0  0  0
   -8.0001   -6.9345    0.0000 C   0  0  0  0  0  0  0  0  0  0  0  0
   -7.1931   -6.7630    0.0000 C   0  0  0  0  0  0  0  0  0  0  0  0
   -6.6411   -7.3761    0.0000 N   0  0  0  0  0  0  0  0  0  0  0  0
   -6.8960   -8.1607    0.0000 C   0  0  0  0  0  0  0  0  0  0  0  0
   -7.7030   -8.3322    0.0000 N   0  0  0  0  0  0  0  0  0  0  0  0
   -8.2550   -7.7191    0.0000 C   0  0  0  0  0  0  0  0  0  0  0  0
   -6.9382   -5.9783    0.0000 N   0  0  0  0  0  0  0  0  0  0  0  0
   -7.4902   -5.3653    0.0000 C   0  0  0  0  0  0  0  0  0  0  0  0
   -7.2353   -4.5806    0.0000 C   0  0  0  0  0  0  0  0  0  0  0  0
   -6.4283   -4.4091    0.0000 N   0  0  0  0  0  0  0  0  0  0  0  0
   -6.1734   -3.6245    0.0000 C   0  0  0  0  0  0  0  0  0  0  0  0
   -5.3664   -3.4530    0.0000 C   0  0  0  0  0  0  0  0  0  0  0  0
   -5.1115   -2.6683    0.0000 C   0  0  0  0  0  0  0  0  0  0  0  0
   -5.5964   -2.0009    0.0000 C   0  0  0  0  0  0  0  0  0  0  0  0
   -5.1115   -1.3335    0.0000 N   0  0  0  0  0  0  0  0  0  0  0  0
   -4.3268   -1.5884    0.0000 C   0  0  0  0  0  0  0  0  0  0  0  0
   -3.6124   -1.1759    0.0000 C   0  0  0  0  0  0  0  0  0  0  0  0
   -2.8979   -1.5884    0.0000 C   0  0  0  0  0  0  0  0  0  0  0  0
   -2.8979   -2.4134    0.0000 C   0  0  0  0  0  0  0  0  0  0  0  0
   -3.6124   -2.8259    0.0000 C   0  0  0  0  0  0  0  0  0  0  0  0
   -4.3268   -2.4134    0.0000 C   0  0  0  0  0  0  0  0  0  0  0  0
   -5.8763   -5.0222    0.0000 C   0  0  0  0  0  0  0  0  0  0  0  0
   -6.1312   -5.8068    0.0000 C   0  0  0  0  0  0  0  0  0  0  0  0
  1  2  3  0  0  0  0
  2  3  1  0  0  0  0
  3  4  2  0  0  0  0
  3 15  1  0  0  0  0
  4  5  1  0  0  0  0
  4  9  1  0  0  0  0
  5  6  1  0  0  0  0
  6  7  1  0  0  0  0
  7  8  1  0  0  0  0
  8  9  1  0  0  0  0
  9 10  1  0  0  0  0
 10 11  2  0  0  0  0
 10 15  1  0  0  0  0
 11 12  1  0  0  0  0
 11 16  1  0  0  0  0
 12 13  2  0  0  0  0
 13 14  1  0  0  0  0
 14 15  2  0  0  0  0
 16 17  1  0  0  0  0
 16 32  1  0  0  0  0
 17 18  1  0  0  0  0
 18 19  1  0  0  0  0
 19 20  1  0  0  0  0
 19 31  1  0  0  0  0
 20 21  1  0  0  0  0
 21 22  1  0  0  0  0
 22 23  2  0  0  0  0
 22 30  1  0  0  0  0
 23 24  1  0  0  0  0
 24 25  1  0  0  0  0
 25 26  2  0  0  0  0
 25 30  1  0  0  0  0
 26 27  1  0  0  0  0
 27 28  2  0  0  0  0
 28 29  1  0  0  0  0
 29 30  2  0  0  0  0
 31 32  1  0  0  0  0
M  END
$$$$

 OpenBabel12191814062D

 29 33  0  0  0  0  0  0  0  0999 V2000
    1.9339    3.1605    0.0000 N   0  0  0  0  0  0  0  0  0  0  0  0
    1.9339    2.3355    0.0000 C   0  0  0  0  0  0  0  0  0  0  0  0
    1.9339    1.5105    0.0000 C   0  0  0  0  0  0  0  0  0  0  0  0
    2.6014    1.0256    0.0000 C   0  0  0  0  0  0  0  0  0  0  0  0
    3.4084    1.1971    0.0000 C   0  0  0  0  0  0  0  0  0  0  0  0
    3.9604    0.5840    0.0000 C   0  0  0  0  0  0  0  0  0  0  0  0
    3.7054   -0.2006    0.0000 C   0  0  0  0  0  0  0  0  0  0  0  0
    2.8985   -0.3721    0.0000 C   0  0  0  0  0  0  0  0  0  0  0  0
    2.3464    0.2410    0.0000 N   0  0  0  0  0  0  0  0  0  0  0  0
    1.5214    0.2410    0.0000 C   0  0  0  0  0  0  0  0  0  0  0  0
    0.9694   -0.3721    0.0000 C   0  0  0  0  0  0  0  0  0  0  0  0
    0.1624   -0.2006    0.0000 N   0  0  0  0  0  0  0  0  0  0  0  0
   -0.0925    0.5840    0.0000 C   0  0  0  0  0  0  0  0  0  0  0  0
    0.4595    1.1971    0.0000 N   0  0  0  0  0  0  0  0  0  0  0  0
    1.2665    1.0256    0.0000 C   0  0  0  0  0  0  0  0  0  0  0  0
    1.2243   -1.1567    0.0000 N   0  0  0  0  0  0  0  0  0  0  0  0
    2.0313   -1.3283    0.0000 C   0  0  0  0  0  0  0  0  0  0  0  0
    2.2863   -2.1129    0.0000 C   0  0  0  0  0  0  0  0  0  0  0  0
    1.7342   -2.7260    0.0000 N   0  0  0  0  0  0  0  0  0  0  0  0
    1.9892   -3.5106    0.0000 C   0  0  0  0  0  0  0  0  0  0  0  0
    2.7961   -3.6821    0.0000 C   0  0  0  0  0  0  0  0  0  0  0  0
    3.0511   -4.4668    0.0000 C   0  0  0  0  0  0  0  0  0  0  0  0
    3.8580   -4.6383    0.0000 C   0  0  0  0  0  0  0  0  0  0  0  0
    4.1130   -5.4229    0.0000 C   0  0  0  0  0  0  0  0  0  0  0  0
    3.5610   -6.0360    0.0000 C   0  0  0  0  0  0  0  0  0  0  0  0
    2.7540   -5.8645    0.0000 C   0  0  0  0  0  0  0  0  0  0  0  0
    2.4990   -5.0799    0.0000 C   0  0  0  0  0  0  0  0  0  0  0  0
    0.9273   -2.5545    0.0000 C   0  0  0  0  0  0  0  0  0  0  0  0
    0.6723   -1.7698    0.0000 C   0  0  0  0  0  0  0  0  0  0  0  0
  1  2  3  0  0  0  0
  2  3  1  0  0  0  0
  3  4  2  0  0  0  0
  3 15  1  0  0  0  0
  4  5  1  0  0  0  0
  4  9  1  0  0  0  0
  5  6  1  0  0  0  0
  6  7  1  0  0  0  0
  7  8  1  0  0  0  0
  8  9  1  0  0  0  0
  9 10  1  0  0  0  0
 10 11  2  0  0  0  0
 10 15  1  0  0  0  0
 11 12  1  0  0  0  0
 11 16  1  0  0  0  0
 12 13  2  0  0  0  0
 13 14  1  0  0  0  0
 14 15  2  0  0  0  0
 16 17  1  0  0  0  0
 16 29  1  0  0  0  0
 17 18  1  0  0  0  0
 18 19  1  0  0  0  0
 19 20  1  0  0  0  0
 19 28  1  0  0  0  0
 20 21  1  0  0  0  0
 21 22  1  0  0  0  0
 22 23  2  0  0  0  0
 22 27  1  0  0  0  0
 23 24  1  0  0  0  0
 24 25  2  0  0  0  0
 25 26  1  0  0  0  0
 26 27  2  0  0  0  0
 28 29  1  0  0  0  0
M  END
$$$$

 OpenBabel12191814062D

 30 34  0  0  0  0  0  0  0  0999 V2000
    1.9339    3.1605    0.0000 N   0  0  0  0  0  0  0  0  0  0  0  0
    1.9339    2.3355    0.0000 C   0  0  0  0  0  0  0  0  0  0  0  0
    1.9339    1.5105    0.0000 C   0  0  0  0  0  0  0  0  0  0  0  0
    2.6014    1.0256    0.0000 C   0  0  0  0  0  0  0  0  0  0  0  0
    3.4084    1.1971    0.0000 C   0  0  0  0  0  0  0  0  0  0  0  0
    3.9604    0.5840    0.0000 C   0  0  0  0  0  0  0  0  0  0  0  0
    3.7054   -0.2006    0.0000 C   0  0  0  0  0  0  0  0  0  0  0  0
    2.8985   -0.3721    0.0000 C   0  0  0  0  0  0  0  0  0  0  0  0
    2.3464    0.2410    0.0000 N   0  0  0  0  0  0  0  0  0  0  0  0
    1.5214    0.2410    0.0000 C   0  0  0  0  0  0  0  0  0  0  0  0
    0.9694   -0.3721    0.0000 C   0  0  0  0  0  0  0  0  0  0  0  0
    0.1624   -0.2006    0.0000 N   0  0  0  0  0  0  0  0  0  0  0  0
   -0.0925    0.5840    0.0000 C   0  0  0  0  0  0  0  0  0  0  0  0
    0.4595    1.1971    0.0000 N   0  0  0  0  0  0  0  0  0  0  0  0
    1.2665    1.0256    0.0000 C   0  0  0  0  0  0  0  0  0  0  0  0
    1.2243   -1.1567    0.0000 N   0  0  0  0  0  0  0  0  0  0  0  0
    2.0313   -1.3283    0.0000 C   0  0  0  0  0  0  0  0  0  0  0  0
    2.2863   -2.1129    0.0000 C   0  0  0  0  0  0  0  0  0  0  0  0
    1.7342   -2.7260    0.0000 N   0  0  0  0  0  0  0  0  0  0  0  0
    1.9892   -3.5106    0.0000 C   0  0  0  0  0  0  0  0  0  0  0  0
    1.4371   -4.1237    0.0000 C   0  0  0  0  0  0  0  0  0  0  0  0
    1.6921   -4.9083    0.0000 C   0  0  0  0  0  0  0  0  0  0  0  0
    1.1400   -5.5214    0.0000 C   0  0  0  0  0  0  0  0  0  0  0  0
    1.3950   -6.3060    0.0000 C   0  0  0  0  0  0  0  0  0  0  0  0
    0.8429   -6.9191    0.0000 C   0  0  0  0  0  0  0  0  0  0  0  0
    0.0360   -6.7476    0.0000 C   0  0  0  0  0  0  0  0  0  0  0  0
   -0.2190   -5.9630    0.0000 C   0  0  0  0  0  0  0  0  0  0  0  0
    0.3331   -5.3499    0.0000 C   0  0  0  0  0  0  0  0  0  0  0  0
    0.9273   -2.5545    0.0000 C   0  0  0  0  0  0  0  0  0  0  0  0
    0.6723   -1.7698    0.0000 C   0  0  0  0  0  0  0  0  0  0  0  0
  1  2  3  0  0  0  0
  2  3  1  0  0  0  0
  3  4  2  0  0  0  0
  3 15  1  0  0  0  0
  4  5  1  0  0  0  0
  4  9  1  0  0  0  0
  5  6  1  0  0  0  0
  6  7  1  0  0  0  0
  7  8  1  0  0  0  0
  8  9  1  0  0  0  0
  9 10  1  0  0  0  0
 10 11  2  0  0  0  0
 10 15  1  0  0  0  0
 11 12  1  0  0  0  0
 11 16  1  0  0  0  0
 12 13  2  0  0  0  0
 13 14  1  0  0  0  0
 14 15  2  0  0  0  0
 16 17  1  0  0  0  0
 16 30  1  0  0  0  0
 17 18  1  0  0  0  0
 18 19  1  0  0  0  0
 19 20  1  0  0  0  0
 19 29  1  0  0  0  0
 20 21  1  0  0  0  0
 21 22  1  0  0  0  0
 22 23  1  0  0  0  0
 23 24  2  0  0  0  0
 23 28  1  0  0  0  0
 24 25  1  0  0  0  0
 25 26  2  0  0  0  0
 26 27  1  0  0  0  0
 27 28  2  0  0  0  0
 29 30  1  0  0  0  0
M  END
$$$$

 OpenBabel12191814062D

 27 29  0  0  0  0  0  0  0  0999 V2000
   -0.5865   -6.1409    0.0000 N   0  0  0  0  0  0  0  0  0  0  0  0
   -1.1168   -5.5090    0.0000 C   0  0  0  0  0  0  0  0  0  0  0  0
   -1.9293   -5.6522    0.0000 O   0  0  0  0  0  0  0  0  0  0  0  0
   -0.8347   -4.7337    0.0000 C   0  0  0  0  0  0  0  0  0  0  0  0
   -0.8347   -3.9087    0.0000 C   0  0  0  0  0  0  0  0  0  0  0  0
   -0.1202   -3.4962    0.0000 C   0  0  0  0  0  0  0  0  0  0  0  0
    0.5943   -3.9087    0.0000 N   0  0  0  0  0  0  0  0  0  0  0  0
    1.3087   -3.4962    0.0000 C   0  0  0  0  0  0  0  0  0  0  0  0
    2.0232   -3.9087    0.0000 C   0  0  0  0  0  0  0  0  0  0  0  0
    2.7377   -3.4962    0.0000 C   0  0  0  0  0  0  0  0  0  0  0  0
    3.4521   -3.9087    0.0000 C   0  0  0  0  0  0  0  0  0  0  0  0
    3.4521   -4.7337    0.0000 O   0  0  0  0  0  0  0  0  0  0  0  0
    4.1666   -3.4962    0.0000 C   0  0  0  0  0  0  0  0  0  0  0  0
    4.1666   -2.6712    0.0000 C   0  0  0  0  0  0  0  0  0  0  0  0
    4.8811   -2.2587    0.0000 C   0  0  0  0  0  0  0  0  0  0  0  0
    5.5956   -2.6712    0.0000 C   0  0  0  0  0  0  0  0  0  0  0  0
    6.3100   -2.2587    0.0000 F   0  0  0  0  0  0  0  0  0  0  0  0
    5.5956   -3.4962    0.0000 C   0  0  0  0  0  0  0  0  0  0  0  0
    4.8811   -3.9087    0.0000 C   0  0  0  0  0  0  0  0  0  0  0  0
    0.5943   -4.7337    0.0000 C   0  0  0  0  0  0  0  0  0  0  0  0
   -0.1202   -5.1462    0.0000 C   0  0  0  0  0  0  0  0  0  0  0  0
   -1.6471   -4.5904    0.0000 N   0  0  0  0  0  0  0  0  0  0  0  0
   -2.1774   -5.2224    0.0000 C   0  0  0  0  0  0  0  0  0  0  0  0
   -2.9899   -5.0792    0.0000 C   0  0  0  0  0  0  0  0  0  0  0  0
   -3.2721   -4.3039    0.0000 C   0  0  0  0  0  0  0  0  0  0  0  0
   -2.7418   -3.6719    0.0000 C   0  0  0  0  0  0  0  0  0  0  0  0
   -1.9293   -3.8152    0.0000 C   0  0  0  0  0  0  0  0  0  0  0  0
  1  2  1  0  0  0  0
  2  3  2  0  0  0  0
  2  4  1  0  0  0  0
  4  5  1  0  0  0  0
  4 21  1  0  0  0  0
  4 22  1  0  0  0  0
  5  6  1  0  0  0  0
  6  7  1  0  0  0  0
  7  8  1  0  0  0  0
  7 20  1  0  0  0  0
  8  9  1  0  0  0  0
  9 10  1  0  0  0  0
 10 11  1  0  0  0  0
 11 12  2  0  0  0  0
 11 13  1  0  0  0  0
 13 14  2  0  0  0  0
 13 19  1  0  0  0  0
 14 15  1  0  0  0  0
 15 16  2  0  0  0  0
 16 17  1  0  0  0  0
 16 18  1  0  0  0  0
 18 19  2  0  0  0  0
 20 21  1  0  0  0  0
 22 23  1  0  0  0  0
 22 27  1  0  0  0  0
 23 24  1  0  0  0  0
 24 25  1  0  0  0  0
 25 26  1  0  0  0  0
 26 27  1  0  0  0  0
M  END
$$$$

 OpenBabel12191814062D

 18 19  0  0  0  0  0  0  0  0999 V2000
    1.3222    5.5902    0.0000 N   0  0  0  0  0  0  0  0  0  0  0  0
    1.3222    4.7652    0.0000 C   0  0  0  0  0  0  0  0  0  0  0  0
    0.6078    4.3527    0.0000 O   0  0  0  0  0  0  0  0  0  0  0  0
    2.0367    4.3527    0.0000 C   0  0  0  0  0  0  0  0  0  0  0  0
    2.7512    4.7652    0.0000 C   0  0  0  0  0  0  0  0  0  0  0  0
    3.4656    4.3527    0.0000 C   0  0  0  0  0  0  0  0  0  0  0  0
    3.4656    3.5277    0.0000 C   0  0  0  0  0  0  0  0  0  0  0  0
    2.7512    3.1152    0.0000 C   0  0  0  0  0  0  0  0  0  0  0  0
    2.0367    3.5277    0.0000 C   0  0  0  0  0  0  0  0  0  0  0  0
    2.7512    2.2902    0.0000 C   0  0  3  0  0  0  0  0  0  0  0  0
    3.4186    1.8053    0.0000 O   0  0  0  0  0  0  0  0  0  0  0  0
    3.1637    1.0206    0.0000 C   0  0  3  0  0  0  0  0  0  0  0  0
    3.6486    0.3532    0.0000 C   0  0  0  0  0  0  0  0  0  0  0  0
    4.4691    0.4394    0.0000 O   0  0  0  0  0  0  0  0  0  0  0  0
    2.3387    1.0206    0.0000 C   0  0  3  0  0  0  0  0  0  0  0  0
    1.8538    0.3532    0.0000 O   0  0  0  0  0  0  0  0  0  0  0  0
    2.0837    1.8053    0.0000 C   0  0  3  0  0  0  0  0  0  0  0  0
    1.2991    2.0602    0.0000 O   0  0  0  0  0  0  0  0  0  0  0  0
  1  2  1  0  0  0  0
  2  3  2  0  0  0  0
  2  4  1  0  0  0  0
  4  5  2  0  0  0  0
  4  9  1  0  0  0  0
  5  6  1  0  0  0  0
  6  7  2  0  0  0  0
  7  8  1  0  0  0  0
  8  9  2  0  0  0  0
  8 10  1  0  0  0  0
 10 11  1  0  0  0  0
 10 17  1  0  0  0  0
 11 12  1  0  0  0  0
 12 13  1  0  0  0  0
 12 15  1  0  0  0  0
 13 14  1  0  0  0  0
 15 16  1  0  0  0  0
 15 17  1  0  0  0  0
 17 18  1  0  0  0  0
M  END
$$$$

 OpenBabel12191814062D

 39 42  0  0  0  0  0  0  0  0999 V2000
   -3.5724    1.2375    0.0000 N   0  0  0  0  0  0  0  0  0  0  0  0
   -2.8579    0.8250    0.0000 C   0  0  0  0  0  0  0  0  0  0  0  0
   -2.1434    1.2375    0.0000 O   0  0  0  0  0  0  0  0  0  0  0  0
   -2.8579   -0.0000    0.0000 C   0  0  3  0  0  0  0  0  0  0  0  0
   -2.1434   -0.4125    0.0000 C   0  0  0  0  0  0  0  0  0  0  0  0
   -2.1434   -1.2375    0.0000 N   0  0  0  0  0  0  0  0  0  0  0  0
   -1.4289   -1.6500    0.0000 C   0  0  0  0  0  0  0  0  0  0  0  0
   -1.4289   -2.4750    0.0000 C   0  0  0  0  0  0  0  0  0  0  0  0
   -2.1434   -2.8875    0.0000 O   0  0  0  0  0  0  0  0  0  0  0  0
   -0.7145   -2.8875    0.0000 N   0  0  0  0  0  0  0  0  0  0  0  0
   -0.7145   -3.7125    0.0000 C   0  0  0  0  0  0  0  0  0  0  0  0
   -0.0000   -4.1250    0.0000 C   0  0  0  0  0  0  0  0  0  0  0  0
    0.7145   -3.7125    0.0000 Cl  0  0  0  0  0  0  0  0  0  0  0  0
   -0.0000   -4.9500    0.0000 C   0  0  0  0  0  0  0  0  0  0  0  0
   -0.7145   -5.3625    0.0000 C   0  0  0  0  0  0  0  0  0  0  0  0
   -1.4289   -4.9500    0.0000 C   0  0  0  0  0  0  0  0  0  0  0  0
   -1.4289   -4.1250    0.0000 C   0  0  0  0  0  0  0  0  0  0  0  0
   -2.1434   -3.7125    0.0000 Cl  0  0  0  0  0  0  0  0  0  0  0  0
   -2.8579   -1.6500    0.0000 C   0  0  0  0  0  0  0  0  0  0  0  0
   -3.5724   -1.2375    0.0000 C   0  0  0  0  0  0  0  0  0  0  0  0
   -3.5724   -0.4125    0.0000 N   0  0  0  0  0  0  0  0  0  0  0  0
   -4.2868   -0.0000    0.0000 C   0  0  0  0  0  0  0  0  0  0  0  0
   -5.0013   -0.4125    0.0000 C   0  0  0  0  0  0  0  0  0  0  0  0
   -5.7158   -0.0000    0.0000 C   0  0  0  0  0  0  0  0  0  0  0  0
   -6.4302   -0.4125    0.0000 C   0  0  0  0  0  0  0  0  0  0  0  0
   -7.1447   -0.0000    0.0000 C   0  0  0  0  0  0  0  0  0  0  0  0
   -7.8592   -0.4125    0.0000 C   0  0  0  0  0  0  0  0  0  0  0  0
   -8.5737   -0.0000    0.0000 C   0  0  0  0  0  0  0  0  0  0  0  0
   -8.5737    0.8250    0.0000 C   0  0  0  0  0  0  0  0  0  0  0  0
   -9.2881    1.2375    0.0000 F   0  0  0  0  0  0  0  0  0  0  0  0
   -7.8592    1.2375    0.0000 C   0  0  0  0  0  0  0  0  0  0  0  0
   -7.1447    0.8250    0.0000 C   0  0  0  0  0  0  0  0  0  0  0  0
   -6.4302   -1.2375    0.0000 C   0  0  0  0  0  0  0  0  0  0  0  0
   -5.7158   -1.6500    0.0000 C   0  0  0  0  0  0  0  0  0  0  0  0
   -5.7158   -2.4750    0.0000 C   0  0  0  0  0  0  0  0  0  0  0  0
   -6.4302   -2.8875    0.0000 C   0  0  0  0  0  0  0  0  0  0  0  0
   -6.4302   -3.7125    0.0000 F   0  0  0  0  0  0  0  0  0  0  0  0
   -7.1447   -2.4750    0.0000 C   0  0  0  0  0  0  0  0  0  0  0  0
   -7.1447   -1.6500    0.0000 C   0  0  0  0  0  0  0  0  0  0  0  0
  1  2  1  0  0  0  0
  2  3  2  0  0  0  0
  2  4  1  0  0  0  0
  4  5  1  0  0  0  0
  4 21  1  0  0  0  0
  5  6  1  0  0  0  0
  6  7  1  0  0  0  0
  6 19  1  0  0  0  0
  7  8  1  0  0  0  0
  8  9  2  0  0  0  0
  8 10  1  0  0  0  0
 10 11  1  0  0  0  0
 11 12  2  0  0  0  0
 11 17  1  0  0  0  0
 12 13  1  0  0  0  0
 12 14  1  0  0  0  0
 14 15  2  0  0  0  0
 15 16  1  0  0  0  0
 16 17  2  0  0  0  0
 17 18  1  0  0  0  0
 19 20  1  0  0  0  0
 20 21  1  0  0  0  0
 21 22  1  0  0  0  0
 22 23  1  0  0  0  0
 23 24  1  0  0  0  0
 24 25  1  0  0  0  0
 25 26  1  0  0  0  0
 25 33  1  0  0  0  0
 26 27  2  0  0  0  0
 26 32  1  0  0  0  0
 27 28  1  0  0  0  0
 28 29  2  0  0  0  0
 29 30  1  0  0  0  0
 29 31  1  0  0  0  0
 31 32  2  0  0  0  0
 33 34  2  0  0  0  0
 33 39  1  0  0  0  0
 34 35  1  0  0  0  0
 35 36  2  0  0  0  0
 36 37  1  0  0  0  0
 36 38  1  0  0  0  0
 38 39  2  0  0  0  0
M  END
$$$$

 OpenBabel12191814062D

 23 24  0  0  0  0  0  0  0  0999 V2000
   -2.1434   -3.7125    0.0000 N   0  0  0  0  0  0  0  0  0  0  0  0
   -1.4289   -3.3000    0.0000 C   0  0  0  0  0  0  0  0  0  0  0  0
   -1.4289   -2.4750    0.0000 O   0  0  0  0  0  0  0  0  0  0  0  0
   -0.7145   -3.7125    0.0000 C   0  0  0  0  0  0  0  0  0  0  0  0
    0.0000   -3.3000    0.0000 C   0  0  0  0  0  0  0  0  0  0  0  0
    0.7145   -3.7125    0.0000 C   0  0  0  0  0  0  0  0  0  0  0  0
    1.4289   -3.3000    0.0000 N   0  0  0  0  0  0  0  0  0  0  0  0
    2.1434   -3.7125    0.0000 C   0  0  0  0  0  0  0  0  0  0  0  0
    2.1434   -4.5375    0.0000 C   0  0  0  0  0  0  0  0  0  0  0  0
    2.8579   -4.9500    0.0000 C   0  0  0  0  0  0  0  0  0  0  0  0
    2.8579   -5.7750    0.0000 C   0  0  0  0  0  0  0  0  0  0  0  0
    2.1434   -6.1875    0.0000 C   0  0  0  0  0  0  0  0  0  0  0  0
    2.1434   -7.0125    0.0000 Cl  0  0  0  0  0  0  0  0  0  0  0  0
    1.4289   -5.7750    0.0000 C   0  0  0  0  0  0  0  0  0  0  0  0
    1.4289   -4.9500    0.0000 C   0  0  0  0  0  0  0  0  0  0  0  0
    2.8579   -3.3000    0.0000 C   0  0  0  0  0  0  0  0  0  0  0  0
    2.8579   -2.4750    0.0000 C   0  0  0  0  0  0  0  0  0  0  0  0
    3.5724   -2.0625    0.0000 C   0  0  0  0  0  0  0  0  0  0  0  0
    3.5724   -1.2375    0.0000 F   0  0  0  0  0  0  0  0  0  0  0  0
    4.2868   -2.4750    0.0000 C   0  0  0  0  0  0  0  0  0  0  0  0
    4.2868   -3.3000    0.0000 C   0  0  0  0  0  0  0  0  0  0  0  0
    3.5724   -3.7125    0.0000 C   0  0  0  0  0  0  0  0  0  0  0  0
    3.5724   -4.5375    0.0000 O   0  0  0  0  0  0  0  0  0  0  0  0
  1  2  1  0  0  0  0
  2  3  2  0  0  0  0
  2  4  1  0  0  0  0
  4  5  1  0  0  0  0
  5  6  1  0  0  0  0
  6  7  1  0  0  0  0
  7  8  2  0  0  0  0
  8  9  1  0  0  0  0
  8 16  1  0  0  0  0
  9 10  2  0  0  0  0
  9 15  1  0  0  0  0
 10 11  1  0  0  0  0
 11 12  2  0  0  0  0
 12 13  1  0  0  0  0
 12 14  1  0  0  0  0
 14 15  2  0  0  0  0
 16 17  2  0  0  0  0
 16 22  1  0  0  0  0
 17 18  1  0  0  0  0
 18 19  1  0  0  0  0
 18 20  2  0  0  0  0
 20 21  1  0  0  0  0
 21 22  2  0  0  0  0
 22 23  1  0  0  0  0
M  END
$$$$

 OpenBabel12191814062D

 42 44  0  0  0  0  0  0  0  0999 V2000
    5.0013   -5.3625    0.0000 N   0  0  0  0  0  0  0  0  0  0  0  0
    5.0013   -6.1875    0.0000 C   0  0  0  0  0  0  0  0  0  0  0  0
    4.2868   -6.6000    0.0000 O   0  0  0  0  0  0  0  0  0  0  0  0
    5.7158   -6.6000    0.0000 C   0  0  0  0  0  0  0  0  0  0  0  0
    5.7158   -7.4250    0.0000 N   0  0  0  0  0  0  0  0  0  0  0  0
    5.0013   -7.8375    0.0000 C   0  0  0  0  0  0  0  0  0  0  0  0
    4.2868   -7.4250    0.0000 C   0  0  0  0  0  0  0  0  0  0  0  0
    3.5724   -7.8375    0.0000 C   0  0  0  0  0  0  0  0  0  0  0  0
    3.5724   -8.6625    0.0000 C   0  0  0  0  0  0  0  0  0  0  0  0
    2.8579   -9.0750    0.0000 C   0  0  0  0  0  0  0  0  0  0  0  0
    2.1434   -8.6625    0.0000 C   0  0  0  0  0  0  0  0  0  0  0  0
    1.4289   -9.0750    0.0000 Cl  0  0  0  0  0  0  0  0  0  0  0  0
    2.1434   -7.8375    0.0000 C   0  0  0  0  0  0  0  0  0  0  0  0
    2.8579   -7.4250    0.0000 C   0  0  0  0  0  0  0  0  0  0  0  0
    2.8579   -6.6000    0.0000 Cl  0  0  0  0  0  0  0  0  0  0  0  0
    6.4302   -7.8375    0.0000 C   0  0  0  0  0  0  0  0  0  0  0  0
    6.4302   -8.6625    0.0000 O   0  0  0  0  0  0  0  0  0  0  0  0
    7.1447   -7.4250    0.0000 C   0  0  0  0  0  0  0  0  0  0  0  0
    7.8592   -7.8375    0.0000 N   0  0  0  0  0  0  0  0  0  0  0  0
    7.8592   -8.6625    0.0000 C   0  0  0  0  0  0  0  0  0  0  0  0
    8.5737   -9.0750    0.0000 C   0  0  0  0  0  0  0  0  0  0  0  0
    8.5737   -9.9000    0.0000 C   0  0  0  0  0  0  0  0  0  0  0  0
    9.2881  -10.3125    0.0000 C   0  0  0  0  0  0  0  0  0  0  0  0
    9.2881  -11.1375    0.0000 C   0  0  0  0  0  0  0  0  0  0  0  0
    8.5737  -11.5500    0.0000 C   0  0  0  0  0  0  0  0  0  0  0  0
    8.5737  -12.3750    0.0000 Cl  0  0  0  0  0  0  0  0  0  0  0  0
    7.8592  -11.1375    0.0000 C   0  0  0  0  0  0  0  0  0  0  0  0
    7.8592  -10.3125    0.0000 C   0  0  0  0  0  0  0  0  0  0  0  0
    7.1447   -9.9000    0.0000 Cl  0  0  0  0  0  0  0  0  0  0  0  0
    8.5737   -7.4250    0.0000 C   0  0  0  0  0  0  0  0  0  0  0  0
    8.5737   -6.6000    0.0000 O   0  0  0  0  0  0  0  0  0  0  0  0
    9.2881   -7.8375    0.0000 C   0  0  0  0  0  0  0  0  0  0  0  0
   10.0026   -7.4250    0.0000 N   0  0  0  0  0  0  0  0  0  0  0  0
   10.7171   -7.8375    0.0000 C   0  0  0  0  0  0  0  0  0  0  0  0
   11.4315   -7.4250    0.0000 C   0  0  0  0  0  0  0  0  0  0  0  0
   12.1460   -7.8375    0.0000 C   0  0  0  0  0  0  0  0  0  0  0  0
   12.8605   -7.4250    0.0000 C   0  0  0  0  0  0  0  0  0  0  0  0
   13.5749   -7.8375    0.0000 C   0  0  0  0  0  0  0  0  0  0  0  0
   13.5749   -8.6625    0.0000 C   0  0  0  0  0  0  0  0  0  0  0  0
   14.2894   -9.0750    0.0000 F   0  0  0  0  0  0  0  0  0  0  0  0
   12.8605   -9.0750    0.0000 C   0  0  0  0  0  0  0  0  0  0  0  0
   12.1460   -8.6625    0.0000 C   0  0  0  0  0  0  0  0  0  0  0  0
  1  2  1  0  0  0  0
  2  3  2  0  0  0  0
  2  4  1  0  0  0  0
  4  5  1  0  0  0  0
  5  6  1  0  0  0  0
  5 16  1  0  0  0  0
  6  7  1  0  0  0  0
  7  8  1  0  0  0  0
  8  9  2  0  0  0  0
  8 14  1  0  0  0  0
  9 10  1  0  0  0  0
 10 11  2  0  0  0  0
 11 12  1  0  0  0  0
 11 13  1  0  0  0  0
 13 14  2  0  0  0  0
 14 15  1  0  0  0  0
 16 17  2  0  0  0  0
 16 18  1  0  0  0  0
 18 19  1  0  0  0  0
 19 20  1  0  0  0  0
 19 30  1  0  0  0  0
 20 21  1  0  0  0  0
 21 22  1  0  0  0  0
 22 23  2  0  0  0  0
 22 28  1  0  0  0  0
 23 24  1  0  0  0  0
 24 25  2  0  0  0  0
 25 26  1  0  0  0  0
 25 27  1  0  0  0  0
 27 28  2  0  0  0  0
 28 29  1  0  0  0  0
 30 31  2  0  0  0  0
 30 32  1  0  0  0  0
 32 33  1  0  0  0  0
 33 34  1  0  0  0  0
 34 35  1  0  0  0  0
 35 36  1  0  0  0  0
 36 37  2  0  0  0  0
 36 42  1  0  0  0  0
 37 38  1  0  0  0  0
 38 39  2  0  0  0  0
 39 40  1  0  0  0  0
 39 41  1  0  0  0  0
 41 42  2  0  0  0  0
M  END
$$$$

 OpenBabel12191814062D

 42 44  0  0  0  0  0  0  0  0999 V2000
    5.0013   -5.3625    0.0000 N   0  0  0  0  0  0  0  0  0  0  0  0
    5.0013   -6.1875    0.0000 C   0  0  0  0  0  0  0  0  0  0  0  0
    4.2868   -6.6000    0.0000 O   0  0  0  0  0  0  0  0  0  0  0  0
    5.7158   -6.6000    0.0000 C   0  0  0  0  0  0  0  0  0  0  0  0
    5.7158   -7.4250    0.0000 N   0  0  0  0  0  0  0  0  0  0  0  0
    5.0013   -7.8375    0.0000 C   0  0  0  0  0  0  0  0  0  0  0  0
    4.2868   -7.4250    0.0000 C   0  0  0  0  0  0  0  0  0  0  0  0
    3.5724   -7.8375    0.0000 C   0  0  0  0  0  0  0  0  0  0  0  0
    3.5724   -8.6625    0.0000 C   0  0  0  0  0  0  0  0  0  0  0  0
    2.8579   -9.0750    0.0000 C   0  0  0  0  0  0  0  0  0  0  0  0
    2.1434   -8.6625    0.0000 C   0  0  0  0  0  0  0  0  0  0  0  0
    1.4289   -9.0750    0.0000 Cl  0  0  0  0  0  0  0  0  0  0  0  0
    2.1434   -7.8375    0.0000 C   0  0  0  0  0  0  0  0  0  0  0  0
    2.8579   -7.4250    0.0000 C   0  0  0  0  0  0  0  0  0  0  0  0
    2.8579   -6.6000    0.0000 Cl  0  0  0  0  0  0  0  0  0  0  0  0
    6.4302   -7.8375    0.0000 C   0  0  0  0  0  0  0  0  0  0  0  0
    6.4302   -8.6625    0.0000 O   0  0  0  0  0  0  0  0  0  0  0  0
    7.1447   -7.4250    0.0000 C   0  0  0  0  0  0  0  0  0  0  0  0
    7.8592   -7.8375    0.0000 N   0  0  0  0  0  0  0  0  0  0  0  0
    7.8592   -8.6625    0.0000 C   0  0  0  0  0  0  0  0  0  0  0  0
    8.5737   -9.0750    0.0000 C   0  0  0  0  0  0  0  0  0  0  0  0
    8.5737   -9.9000    0.0000 C   0  0  0  0  0  0  0  0  0  0  0  0
    9.2881  -10.3125    0.0000 C   0  0  0  0  0  0  0  0  0  0  0  0
    9.2881  -11.1375    0.0000 C   0  0  0  0  0  0  0  0  0  0  0  0
    8.5737  -11.5500    0.0000 C   0  0  0  0  0  0  0  0  0  0  0  0
    8.5737  -12.3750    0.0000 Cl  0  0  0  0  0  0  0  0  0  0  0  0
    7.8592  -11.1375    0.0000 C   0  0  0  0  0  0  0  0  0  0  0  0
    7.8592  -10.3125    0.0000 C   0  0  0  0  0  0  0  0  0  0  0  0
    7.1447   -9.9000    0.0000 Cl  0  0  0  0  0  0  0  0  0  0  0  0
    8.5737   -7.4250    0.0000 C   0  0  0  0  0  0  0  0  0  0  0  0
    8.5737   -6.6000    0.0000 O   0  0  0  0  0  0  0  0  0  0  0  0
    9.2881   -7.8375    0.0000 C   0  0  0  0  0  0  0  0  0  0  0  0
   10.0026   -7.4250    0.0000 N   0  0  0  0  0  0  0  0  0  0  0  0
   10.7171   -7.8375    0.0000 C   0  0  0  0  0  0  0  0  0  0  0  0
   11.4315   -7.4250    0.0000 C   0  0  0  0  0  0  0  0  0  0  0  0
   12.1460   -7.8375    0.0000 C   0  0  0  0  0  0  0  0  0  0  0  0
   12.8605   -7.4250    0.0000 C   0  0  0  0  0  0  0  0  0  0  0  0
   13.5749   -7.8375    0.0000 C   0  0  0  0  0  0  0  0  0  0  0  0
   13.5749   -8.6625    0.0000 C   0  0  0  0  0  0  0  0  0  0  0  0
   12.8605   -9.0750    0.0000 C   0  0  0  0  0  0  0  0  0  0  0  0
   12.1460   -8.6625    0.0000 C   0  0  0  0  0  0  0  0  0  0  0  0
   11.4315   -9.0750    0.0000 F   0  0  0  0  0  0  0  0  0  0  0  0
  1  2  1  0  0  0  0
  2  3  2  0  0  0  0
  2  4  1  0  0  0  0
  4  5  1  0  0  0  0
  5  6  1  0  0  0  0
  5 16  1  0  0  0  0
  6  7  1  0  0  0  0
  7  8  1  0  0  0  0
  8  9  2  0  0  0  0
  8 14  1  0  0  0  0
  9 10  1  0  0  0  0
 10 11  2  0  0  0  0
 11 12  1  0  0  0  0
 11 13  1  0  0  0  0
 13 14  2  0  0  0  0
 14 15  1  0  0  0  0
 16 17  2  0  0  0  0
 16 18  1  0  0  0  0
 18 19  1  0  0  0  0
 19 20  1  0  0  0  0
 19 30  1  0  0  0  0
 20 21  1  0  0  0  0
 21 22  1  0  0  0  0
 22 23  2  0  0  0  0
 22 28  1  0  0  0  0
 23 24  1  0  0  0  0
 24 25  2  0  0  0  0
 25 26  1  0  0  0  0
 25 27  1  0  0  0  0
 27 28  2  0  0  0  0
 28 29  1  0  0  0  0
 30 31  2  0  0  0  0
 30 32  1  0  0  0  0
 32 33  1  0  0  0  0
 33 34  1  0  0  0  0
 34 35  1  0  0  0  0
 35 36  1  0  0  0  0
 36 37  2  0  0  0  0
 36 41  1  0  0  0  0
 37 38  1  0  0  0  0
 38 39  2  0  0  0  0
 39 40  1  0  0  0  0
 40 41  2  0  0  0  0
 41 42  1  0  0  0  0
M  END
$$$$

 OpenBabel12191814062D

 24 26  0  0  0  0  0  0  0  0999 V2000
   -1.4289    0.8250    0.0000 N   0  0  0  0  0  0  0  0  0  0  0  0
   -1.4289   -0.0000    0.0000 C   0  0  0  0  0  0  0  0  0  0  0  0
   -2.1434   -0.4125    0.0000 O   0  0  0  0  0  0  0  0  0  0  0  0
   -0.7145   -0.4125    0.0000 C   0  0  0  0  0  0  0  0  0  0  0  0
   -0.7145   -1.2375    0.0000 N   0  0  0  0  0  0  0  0  0  0  0  0
    0.0000   -1.6500    0.0000 C   0  0  0  0  0  0  0  0  0  0  0  0
    0.0000   -2.4750    0.0000 C   0  0  0  0  0  0  0  0  0  0  0  0
   -0.7145   -2.8875    0.0000 C   0  0  0  0  0  0  0  0  0  0  0  0
   -1.4289   -2.4750    0.0000 C   0  0  0  0  0  0  0  0  0  0  0  0
   -1.4289   -1.6500    0.0000 C   0  0  0  0  0  0  0  0  0  0  0  0
   -0.7145   -3.7125    0.0000 C   0  0  0  0  0  0  0  0  0  0  0  0
   -1.4289   -4.1250    0.0000 C   0  0  0  0  0  0  0  0  0  0  0  0
   -1.4289   -4.9500    0.0000 C   0  0  0  0  0  0  0  0  0  0  0  0
   -2.1434   -5.3625    0.0000 C   0  0  0  0  0  0  0  0  0  0  0  0
   -2.8579   -4.9500    0.0000 C   0  0  0  0  0  0  0  0  0  0  0  0
   -2.8579   -4.1250    0.0000 C   0  0  0  0  0  0  0  0  0  0  0  0
   -2.1434   -3.7125    0.0000 C   0  0  0  0  0  0  0  0  0  0  0  0
   -0.0000   -4.1250    0.0000 C   0  0  0  0  0  0  0  0  0  0  0  0
    0.7145   -3.7125    0.0000 C   0  0  0  0  0  0  0  0  0  0  0  0
    1.4289   -4.1250    0.0000 C   0  0  0  0  0  0  0  0  0  0  0  0
    1.4289   -4.9500    0.0000 C   0  0  0  0  0  0  0  0  0  0  0  0
    2.1434   -5.3625    0.0000 Cl  0  0  0  0  0  0  0  0  0  0  0  0
    0.7145   -5.3625    0.0000 C   0  0  0  0  0  0  0  0  0  0  0  0
   -0.0000   -4.9500    0.0000 C   0  0  0  0  0  0  0  0  0  0  0  0
  1  2  1  0  0  0  0
  2  3  2  0  0  0  0
  2  4  1  0  0  0  0
  4  5  1  0  0  0  0
  5  6  1  0  0  0  0
  5 10  1  0  0  0  0
  6  7  1  0  0  0  0
  7  8  1  0  0  0  0
  8  9  1  0  0  0  0
  8 11  2  0  0  0  0
  9 10  1  0  0  0  0
 11 12  1  0  0  0  0
 11 18  1  0  0  0  0
 12 13  2  0  0  0  0
 12 17  1  0  0  0  0
 13 14  1  0  0  0  0
 14 15  2  0  0  0  0
 15 16  1  0  0  0  0
 16 17  2  0  0  0  0
 18 19  2  0  0  0  0
 18 24  1  0  0  0  0
 19 20  1  0  0  0  0
 20 21  2  0  0  0  0
 21 22  1  0  0  0  0
 21 23  1  0  0  0  0
 23 24  2  0  0  0  0
M  END
$$$$

 OpenBabel12191814062D

 27 29  0  0  0  0  0  0  0  0999 V2000
   -4.2868   -5.7750    0.0000 N   0  0  0  0  0  0  0  0  0  0  0  0
   -3.5724   -5.3625    0.0000 C   0  0  0  0  0  0  0  0  0  0  0  0
   -3.5724   -4.5375    0.0000 O   0  0  0  0  0  0  0  0  0  0  0  0
   -2.8579   -5.7750    0.0000 C   0  0  0  0  0  0  0  0  0  0  0  0
   -2.1434   -5.3625    0.0000 O   0  0  0  0  0  0  0  0  0  0  0  0
   -1.4289   -5.7750    0.0000 C   0  0  0  0  0  0  0  0  0  0  0  0
   -0.7145   -5.3625    0.0000 C   0  0  0  0  0  0  0  0  0  0  0  0
    0.0000   -5.7750    0.0000 N   0  0  0  0  0  0  0  0  0  0  0  0
    0.7145   -5.3625    0.0000 C   0  0  0  0  0  0  0  0  0  0  0  0
    1.4289   -5.7750    0.0000 C   0  0  0  0  0  0  0  0  0  0  0  0
    1.4289   -6.6000    0.0000 N   0  0  0  0  0  0  0  0  0  0  0  0
    0.7145   -7.0125    0.0000 C   0  0  0  0  0  0  0  0  0  0  0  0
    0.0000   -6.6000    0.0000 C   0  0  0  0  0  0  0  0  0  0  0  0
    2.1434   -7.0125    0.0000 C   0  0  3  0  0  0  0  0  0  0  0  0
    2.1434   -7.8375    0.0000 C   0  0  0  0  0  0  0  0  0  0  0  0
    2.8579   -8.2500    0.0000 C   0  0  0  0  0  0  0  0  0  0  0  0
    2.8579   -9.0750    0.0000 C   0  0  0  0  0  0  0  0  0  0  0  0
    2.1434   -9.4875    0.0000 C   0  0  0  0  0  0  0  0  0  0  0  0
    1.4289   -9.0750    0.0000 C   0  0  0  0  0  0  0  0  0  0  0  0
    1.4289   -8.2500    0.0000 C   0  0  0  0  0  0  0  0  0  0  0  0
    2.8579   -6.6000    0.0000 C   0  0  0  0  0  0  0  0  0  0  0  0
    2.8579   -5.7750    0.0000 C   0  0  0  0  0  0  0  0  0  0  0  0
    3.5724   -5.3625    0.0000 C   0  0  0  0  0  0  0  0  0  0  0  0
    4.2868   -5.7750    0.0000 C   0  0  0  0  0  0  0  0  0  0  0  0
    5.0013   -5.3625    0.0000 Cl  0  0  0  0  0  0  0  0  0  0  0  0
    4.2868   -6.6000    0.0000 C   0  0  0  0  0  0  0  0  0  0  0  0
    3.5724   -7.0125    0.0000 C   0  0  0  0  0  0  0  0  0  0  0  0
  1  2  1  0  0  0  0
  2  3  2  0  0  0  0
  2  4  1  0  0  0  0
  4  5  1  0  0  0  0
  5  6  1  0  0  0  0
  6  7  1  0  0  0  0
  7  8  1  0  0  0  0
  8  9  1  0  0  0  0
  8 13  1  0  0  0  0
  9 10  1  0  0  0  0
 10 11  1  0  0  0  0
 11 12  1  0  0  0  0
 11 14  1  0  0  0  0
 12 13  1  0  0  0  0
 14 15  1  0  0  0  0
 14 21  1  0  0  0  0
 15 16  2  0  0  0  0
 15 20  1  0  0  0  0
 16 17  1  0  0  0  0
 17 18  2  0  0  0  0
 18 19  1  0  0  0  0
 19 20  2  0  0  0  0
 21 22  2  0  0  0  0
 21 27  1  0  0  0  0
 22 23  1  0  0  0  0
 23 24  2  0  0  0  0
 24 25  1  0  0  0  0
 24 26  1  0  0  0  0
 26 27  2  0  0  0  0
M  END
$$$$

 OpenBabel12191814062D

 29 31  0  0  0  0  0  0  0  0999 V2000
   -5.7158    0.8250    0.0000 N   0  0  0  0  0  0  0  0  0  0  0  0
   -5.0013    0.4125    0.0000 C   0  0  0  0  0  0  0  0  0  0  0  0
   -5.0013   -0.4125    0.0000 O   0  0  0  0  0  0  0  0  0  0  0  0
   -4.2868    0.8250    0.0000 C   0  0  0  0  0  0  0  0  0  0  0  0
   -3.5724    0.4125    0.0000 O   0  0  0  0  0  0  0  0  0  0  0  0
   -2.8579    0.8250    0.0000 C   0  0  0  0  0  0  0  0  0  0  0  0
   -2.1434    0.4125    0.0000 C   0  0  0  0  0  0  0  0  0  0  0  0
   -1.4289    0.8250    0.0000 O   0  0  0  0  0  0  0  0  0  0  0  0
   -0.7145    0.4125    0.0000 C   0  0  0  0  0  0  0  0  0  0  0  0
   -0.0000    0.8250    0.0000 C   0  0  0  0  0  0  0  0  0  0  0  0
   -0.0000    1.6500    0.0000 N   0  0  0  0  0  0  0  0  0  0  0  0
   -0.7145    2.0625    0.0000 C   0  0  0  0  0  0  0  0  0  0  0  0
   -0.7145    2.8875    0.0000 C   0  0  0  0  0  0  0  0  0  0  0  0
   -0.0000    3.3000    0.0000 C   0  0  0  0  0  0  0  0  0  0  0  0
    0.7145    2.8875    0.0000 C   0  0  0  0  0  0  0  0  0  0  0  0
    0.7145    2.0625    0.0000 C   0  0  0  0  0  0  0  0  0  0  0  0
    0.0000    4.1250    0.0000 C   0  0  0  0  0  0  0  0  0  0  0  0
    0.7145    4.5375    0.0000 C   0  0  0  0  0  0  0  0  0  0  0  0
    0.7145    5.3625    0.0000 C   0  0  0  0  0  0  0  0  0  0  0  0
    1.4289    5.7750    0.0000 C   0  0  0  0  0  0  0  0  0  0  0  0
    2.1434    5.3625    0.0000 C   0  0  0  0  0  0  0  0  0  0  0  0
    2.1434    4.5375    0.0000 C   0  0  0  0  0  0  0  0  0  0  0  0
    1.4289    4.1250    0.0000 C   0  0  0  0  0  0  0  0  0  0  0  0
   -0.7145    4.5375    0.0000 C   0  0  0  0  0  0  0  0  0  0  0  0
   -1.4289    4.1250    0.0000 C   0  0  0  0  0  0  0  0  0  0  0  0
   -2.1434    4.5375    0.0000 C   0  0  0  0  0  0  0  0  0  0  0  0
   -2.1434    5.3625    0.0000 C   0  0  0  0  0  0  0  0  0  0  0  0
   -1.4289    5.7750    0.0000 C   0  0  0  0  0  0  0  0  0  0  0  0
   -0.7145    5.3625    0.0000 C   0  0  0  0  0  0  0  0  0  0  0  0
  1  2  1  0  0  0  0
  2  3  2  0  0  0  0
  2  4  1  0  0  0  0
  4  5  1  0  0  0  0
  5  6  1  0  0  0  0
  6  7  1  0  0  0  0
  7  8  1  0  0  0  0
  8  9  1  0  0  0  0
  9 10  1  0  0  0  0
 10 11  1  0  0  0  0
 11 12  1  0  0  0  0
 11 16  1  0  0  0  0
 12 13  1  0  0  0  0
 13 14  1  0  0  0  0
 14 15  1  0  0  0  0
 14 17  2  0  0  0  0
 15 16  1  0  0  0  0
 17 18  1  0  0  0  0
 17 24  1  0  0  0  0
 18 19  2  0  0  0  0
 18 23  1  0  0  0  0
 19 20  1  0  0  0  0
 20 21  2  0  0  0  0
 21 22  1  0  0  0  0
 22 23  2  0  0  0  0
 24 25  2  0  0  0  0
 24 29  1  0  0  0  0
 25 26  1  0  0  0  0
 26 27  2  0  0  0  0
 27 28  1  0  0  0  0
 28 29  2  0  0  0  0
M  END
$$$$

 OpenBabel12191814062D

 16 16  0  0  0  0  0  0  0  0999 V2000
    0.7145   -3.7125    0.0000 N   0  0  0  0  0  0  0  0  0  0  0  0
    1.4289   -4.1250    0.0000 C   0  0  0  0  0  0  0  0  0  0  0  0
    1.4289   -4.9500    0.0000 O   0  0  0  0  0  0  0  0  0  0  0  0
    2.1434   -3.7125    0.0000 O   0  0  0  0  0  0  0  0  0  0  0  0
    2.8579   -4.1250    0.0000 C   0  0  0  0  0  0  0  0  0  0  0  0
    3.5724   -3.7125    0.0000 C   0  0  3  0  0  0  0  0  0  0  0  0
    3.5724   -2.8875    0.0000 O   0  0  0  0  0  0  0  0  0  0  0  0
    4.2868   -4.1250    0.0000 C   0  0  0  0  0  0  0  0  0  0  0  0
    5.0013   -3.7125    0.0000 O   0  0  0  0  0  0  0  0  0  0  0  0
    5.7158   -4.1250    0.0000 C   0  0  0  0  0  0  0  0  0  0  0  0
    6.4302   -3.7125    0.0000 C   0  0  0  0  0  0  0  0  0  0  0  0
    7.1447   -4.1250    0.0000 C   0  0  0  0  0  0  0  0  0  0  0  0
    7.1447   -4.9500    0.0000 C   0  0  0  0  0  0  0  0  0  0  0  0
    7.8592   -5.3625    0.0000 Cl  0  0  0  0  0  0  0  0  0  0  0  0
    6.4302   -5.3625    0.0000 C   0  0  0  0  0  0  0  0  0  0  0  0
    5.7158   -4.9500    0.0000 C   0  0  0  0  0  0  0  0  0  0  0  0
  1  2  1  0  0  0  0
  2  3  2  0  0  0  0
  2  4  1  0  0  0  0
  4  5  1  0  0  0  0
  5  6  1  0  0  0  0
  6  7  1  0  0  0  0
  6  8  1  0  0  0  0
  8  9  1  0  0  0  0
  9 10  1  0  0  0  0
 10 11  2  0  0  0  0
 10 16  1  0  0  0  0
 11 12  1  0  0  0  0
 12 13  2  0  0  0  0
 13 14  1  0  0  0  0
 13 15  1  0  0  0  0
 15 16  2  0  0  0  0
M  END
$$$$

 OpenBabel12191814062D

 19 21  0  0  0  0  0  0  0  0999 V2000
    1.4289   -2.4750    0.0000 N   0  0  0  0  0  0  0  0  0  0  0  0
    1.4289   -1.6500    0.0000 C   0  0  3  0  0  0  0  0  0  0  0  0
    0.7145   -1.2375    0.0000 C   0  0  0  0  0  0  0  0  0  0  0  0
    0.7145   -0.4125    0.0000 C   0  0  0  0  0  0  0  0  0  0  0  0
    1.4289    0.0000    0.0000 C   0  0  3  0  0  0  0  0  0  0  0  0
    1.4289    0.8250    0.0000 C   0  0  0  0  0  0  0  0  0  0  0  0
    0.7145    1.2375    0.0000 C   0  0  0  0  0  0  0  0  0  0  0  0
    0.7145    2.0625    0.0000 C   0  0  0  0  0  0  0  0  0  0  0  0
    1.4289    2.4750    0.0000 C   0  0  0  0  0  0  0  0  0  0  0  0
    1.4289    3.3000    0.0000 Cl  0  0  0  0  0  0  0  0  0  0  0  0
    2.1434    2.0625    0.0000 C   0  0  0  0  0  0  0  0  0  0  0  0
    2.8579    2.4750    0.0000 Cl  0  0  0  0  0  0  0  0  0  0  0  0
    2.1434    1.2375    0.0000 C   0  0  0  0  0  0  0  0  0  0  0  0
    2.1434   -0.4125    0.0000 C   0  0  0  0  0  0  0  0  0  0  0  0
    2.8579    0.0000    0.0000 C   0  0  0  0  0  0  0  0  0  0  0  0
    3.5724   -0.4125    0.0000 C   0  0  0  0  0  0  0  0  0  0  0  0
    3.5724   -1.2375    0.0000 C   0  0  0  0  0  0  0  0  0  0  0  0
    2.8579   -1.6500    0.0000 C   0  0  0  0  0  0  0  0  0  0  0  0
    2.1434   -1.2375    0.0000 C   0  0  0  0  0  0  0  0  0  0  0  0
  1  2  1  0  0  0  0
  2  3  1  0  0  0  0
  2 19  1  0  0  0  0
  3  4  1  0  0  0  0
  4  5  1  0  0  0  0
  5  6  1  0  0  0  0
  5 14  1  0  0  0  0
  6  7  2  0  0  0  0
  6 13  1  0  0  0  0
  7  8  1  0  0  0  0
  8  9  2  0  0  0  0
  9 10  1  0  0  0  0
  9 11  1  0  0  0  0
 11 12  1  0  0  0  0
 11 13  2  0  0  0  0
 14 15  2  0  0  0  0
 14 19  1  0  0  0  0
 15 16  1  0  0  0  0
 16 17  2  0  0  0  0
 17 18  1  0  0  0  0
 18 19  2  0  0  0  0
M  END
$$$$

 OpenBabel12191814062D

 28 31  0  0  0  0  0  0  0  0999 V2000
   -5.7158   -6.6000    0.0000 N   0  0  0  0  0  0  0  0  0  0  0  0
   -5.0013   -6.1875    0.0000 C   0  0  0  0  0  0  0  0  0  0  0  0
   -5.0013   -5.3625    0.0000 C   0  0  0  0  0  0  0  0  0  0  0  0
   -4.2868   -4.9500    0.0000 C   0  0  0  0  0  0  0  0  0  0  0  0
   -3.5724   -5.3625    0.0000 C   0  0  0  0  0  0  0  0  0  0  0  0
   -3.5724   -6.1875    0.0000 C   0  0  0  0  0  0  0  0  0  0  0  0
   -4.2868   -6.6000    0.0000 C   0  0  0  0  0  0  0  0  0  0  0  0
   -2.8579   -4.9500    0.0000 C   0  0  0  0  0  0  0  0  0  0  0  0
   -2.1434   -5.3625    0.0000 O   0  0  0  0  0  0  0  0  0  0  0  0
   -2.8579   -4.1250    0.0000 N   0  0  0  0  0  0  0  0  0  0  0  0
   -2.1434   -3.7125    0.0000 C   0  0  0  0  0  0  0  0  0  0  0  0
   -2.1434   -2.8875    0.0000 C   0  0  0  0  0  0  0  0  0  0  0  0
   -1.4289   -2.4750    0.0000 C   0  0  0  0  0  0  0  0  0  0  0  0
   -0.7145   -2.8875    0.0000 C   0  0  0  0  0  0  0  0  0  0  0  0
    0.0000   -2.4750    0.0000 C   0  0  0  0  0  0  0  0  0  0  0  0
    0.0000   -1.6500    0.0000 C   0  0  0  0  0  0  0  0  0  0  0  0
    0.7145   -1.2375    0.0000 N   0  0  0  0  0  0  0  0  0  0  0  0
    0.7145   -0.4125    0.0000 C   0  0  0  0  0  0  0  0  0  0  0  0
    1.4289    0.0000    0.0000 C   0  0  0  0  0  0  0  0  0  0  0  0
    2.1434   -0.4125    0.0000 C   0  0  0  0  0  0  0  0  0  0  0  0
    2.8579    0.0000    0.0000 C   0  0  0  0  0  0  0  0  0  0  0  0
    3.5724   -0.4125    0.0000 C   0  0  0  0  0  0  0  0  0  0  0  0
    3.5724   -1.2375    0.0000 C   0  0  0  0  0  0  0  0  0  0  0  0
    2.8579   -1.6500    0.0000 C   0  0  0  0  0  0  0  0  0  0  0  0
    2.1434   -1.2375    0.0000 C   0  0  0  0  0  0  0  0  0  0  0  0
    1.4289   -1.6500    0.0000 C   0  0  0  0  0  0  0  0  0  0  0  0
   -0.7145   -3.7125    0.0000 C   0  0  0  0  0  0  0  0  0  0  0  0
   -1.4289   -4.1250    0.0000 C   0  0  0  0  0  0  0  0  0  0  0  0
  1  2  1  0  0  0  0
  2  3  2  0  0  0  0
  2  7  1  0  0  0  0
  3  4  1  0  0  0  0
  4  5  2  0  0  0  0
  5  6  1  0  0  0  0
  5  8  1  0  0  0  0
  6  7  2  0  0  0  0
  8  9  2  0  0  0  0
  8 10  1  0  0  0  0
 10 11  1  0  0  0  0
 11 12  2  0  0  0  0
 11 28  1  0  0  0  0
 12 13  1  0  0  0  0
 13 14  2  0  0  0  0
 14 15  1  0  0  0  0
 14 27  1  0  0  0  0
 15 16  1  0  0  0  0
 16 17  1  0  0  0  0
 17 18  1  0  0  0  0
 17 26  1  0  0  0  0
 18 19  1  0  0  0  0
 19 20  1  0  0  0  0
 20 21  2  0  0  0  0
 20 25  1  0  0  0  0
 21 22  1  0  0  0  0
 22 23  2  0  0  0  0
 23 24  1  0  0  0  0
 24 25  2  0  0  0  0
 25 26  1  0  0  0  0
 27 28  2  0  0  0  0
M  END
$$$$

 OpenBabel12191814062D

 21 22  0  0  0  0  0  0  0  0999 V2000
    0.7145   -0.4125    0.0000 N   0  0  0  0  0  0  0  0  0  0  0  0
    0.7145   -1.2375    0.0000 C   0  0  0  0  0  0  0  0  0  0  0  0
    1.4289   -1.6500    0.0000 C   0  0  0  0  0  0  0  0  0  0  0  0
    1.4289   -2.4750    0.0000 C   0  0  0  0  0  0  0  0  0  0  0  0
    0.7145   -2.8875    0.0000 C   0  0  0  0  0  0  0  0  0  0  0  0
    0.0000   -2.4750    0.0000 C   0  0  0  0  0  0  0  0  0  0  0  0
    0.0000   -1.6500    0.0000 C   0  0  0  0  0  0  0  0  0  0  0  0
    0.7145   -3.7125    0.0000 C   0  0  0  0  0  0  0  0  0  0  0  0
    1.4289   -4.1250    0.0000 C   0  0  0  0  0  0  0  0  0  0  0  0
    1.4289   -4.9500    0.0000 C   0  0  0  0  0  0  0  0  0  0  0  0
    0.7145   -5.3625    0.0000 C   0  0  0  0  0  0  0  0  0  0  0  0
   -0.0000   -4.9500    0.0000 C   0  0  0  0  0  0  0  0  0  0  0  0
    0.0000   -4.1250    0.0000 C   0  0  0  0  0  0  0  0  0  0  0  0
   -0.7145   -5.3625    0.0000 C   0  0  0  0  0  0  0  0  0  0  0  0
   -1.4289   -5.7750    0.0000 F   0  0  0  0  0  0  0  0  0  0  0  0
   -1.1270   -4.6480    0.0000 F   0  0  0  0  0  0  0  0  0  0  0  0
   -0.3020   -6.0770    0.0000 F   0  0  0  0  0  0  0  0  0  0  0  0
    2.1434   -5.3625    0.0000 C   0  0  0  0  0  0  0  0  0  0  0  0
    2.8579   -5.7750    0.0000 F   0  0  0  0  0  0  0  0  0  0  0  0
    1.7309   -6.0770    0.0000 F   0  0  0  0  0  0  0  0  0  0  0  0
    2.5559   -4.6480    0.0000 F   0  0  0  0  0  0  0  0  0  0  0  0
  1  2  1  0  0  0  0
  2  3  2  0  0  0  0
  2  7  1  0  0  0  0
  3  4  1  0  0  0  0
  4  5  2  0  0  0  0
  5  6  1  0  0  0  0
  5  8  1  0  0  0  0
  6  7  2  0  0  0  0
  8  9  2  0  0  0  0
  8 13  1  0  0  0  0
  9 10  1  0  0  0  0
 10 11  2  0  0  0  0
 10 18  1  0  0  0  0
 11 12  1  0  0  0  0
 12 13  2  0  0  0  0
 12 14  1  0  0  0  0
 14 15  1  0  0  0  0
 14 16  1  0  0  0  0
 14 17  1  0  0  0  0
 18 19  1  0  0  0  0
 18 20  1  0  0  0  0
 18 21  1  0  0  0  0
M  END
$$$$

 OpenBabel12191814062D

 28 31  0  0  0  0  0  0  0  0999 V2000
   -2.8579   -6.6000    0.0000 N   0  0  0  0  0  0  0  0  0  0  0  0
   -3.5724   -6.1875    0.0000 C   0  0  0  0  0  0  0  0  0  0  0  0
   -4.2868   -6.6000    0.0000 C   0  0  0  0  0  0  0  0  0  0  0  0
   -5.0013   -6.1875    0.0000 C   0  0  0  0  0  0  0  0  0  0  0  0
   -5.0013   -5.3625    0.0000 C   0  0  0  0  0  0  0  0  0  0  0  0
   -4.2868   -4.9500    0.0000 C   0  0  0  0  0  0  0  0  0  0  0  0
   -3.5724   -5.3625    0.0000 C   0  0  0  0  0  0  0  0  0  0  0  0
   -2.8579   -4.9500    0.0000 C   0  0  0  0  0  0  0  0  0  0  0  0
   -2.1434   -5.3625    0.0000 O   0  0  0  0  0  0  0  0  0  0  0  0
   -2.8579   -4.1250    0.0000 N   0  0  0  0  0  0  0  0  0  0  0  0
   -2.1434   -3.7125    0.0000 C   0  0  0  0  0  0  0  0  0  0  0  0
   -2.1434   -2.8875    0.0000 C   0  0  0  0  0  0  0  0  0  0  0  0
   -1.4289   -2.4750    0.0000 C   0  0  0  0  0  0  0  0  0  0  0  0
   -0.7145   -2.8875    0.0000 C   0  0  0  0  0  0  0  0  0  0  0  0
    0.0000   -2.4750    0.0000 C   0  0  0  0  0  0  0  0  0  0  0  0
    0.0000   -1.6500    0.0000 C   0  0  0  0  0  0  0  0  0  0  0  0
    0.7145   -1.2375    0.0000 N   0  0  0  0  0  0  0  0  0  0  0  0
    0.7145   -0.4125    0.0000 C   0  0  0  0  0  0  0  0  0  0  0  0
    1.4289    0.0000    0.0000 C   0  0  0  0  0  0  0  0  0  0  0  0
    2.1434   -0.4125    0.0000 C   0  0  0  0  0  0  0  0  0  0  0  0
    2.8579    0.0000    0.0000 C   0  0  0  0  0  0  0  0  0  0  0  0
    3.5724   -0.4125    0.0000 C   0  0  0  0  0  0  0  0  0  0  0  0
    3.5724   -1.2375    0.0000 C   0  0  0  0  0  0  0  0  0  0  0  0
    2.8579   -1.6500    0.0000 C   0  0  0  0  0  0  0  0  0  0  0  0
    2.1434   -1.2375    0.0000 C   0  0  0  0  0  0  0  0  0  0  0  0
    1.4289   -1.6500    0.0000 C   0  0  0  0  0  0  0  0  0  0  0  0
   -0.7145   -3.7125    0.0000 C   0  0  0  0  0  0  0  0  0  0  0  0
   -1.4289   -4.1250    0.0000 C   0  0  0  0  0  0  0  0  0  0  0  0
  1  2  1  0  0  0  0
  2  3  2  0  0  0  0
  2  7  1  0  0  0  0
  3  4  1  0  0  0  0
  4  5  2  0  0  0  0
  5  6  1  0  0  0  0
  6  7  2  0  0  0  0
  7  8  1  0  0  0  0
  8  9  2  0  0  0  0
  8 10  1  0  0  0  0
 10 11  1  0  0  0  0
 11 12  2  0  0  0  0
 11 28  1  0  0  0  0
 12 13  1  0  0  0  0
 13 14  2  0  0  0  0
 14 15  1  0  0  0  0
 14 27  1  0  0  0  0
 15 16  1  0  0  0  0
 16 17  1  0  0  0  0
 17 18  1  0  0  0  0
 17 26  1  0  0  0  0
 18 19  1  0  0  0  0
 19 20  1  0  0  0  0
 20 21  2  0  0  0  0
 20 25  1  0  0  0  0
 21 22  1  0  0  0  0
 22 23  2  0  0  0  0
 23 24  1  0  0  0  0
 24 25  2  0  0  0  0
 25 26  1  0  0  0  0
 27 28  2  0  0  0  0
M  END
$$$$

 OpenBabel12191814062D

 21 22  0  0  0  0  0  0  0  0999 V2000
   -2.1434   -1.2375    0.0000 N   0  0  0  0  0  0  0  0  0  0  0  0
   -1.4289   -1.6500    0.0000 C   0  0  0  0  0  0  0  0  0  0  0  0
   -0.7145   -1.2375    0.0000 N   0  0  0  0  0  0  0  0  0  0  0  0
    0.0000   -1.6500    0.0000 C   0  0  0  0  0  0  0  0  0  0  0  0
    0.7145   -1.2375    0.0000 N   0  0  0  0  0  0  0  0  0  0  0  0
    0.0000   -2.4750    0.0000 C   0  0  0  0  0  0  0  0  0  0  0  0
   -0.7145   -2.8875    0.0000 N   0  0  0  0  0  0  0  0  0  0  0  0
   -1.4289   -2.4750    0.0000 C   0  0  0  0  0  0  0  0  0  0  0  0
   -2.1434   -2.8875    0.0000 Cl  0  0  0  0  0  0  0  0  0  0  0  0
    0.7145   -2.8875    0.0000 C   0  0  0  0  0  0  0  0  0  0  0  0
    0.7145   -3.7125    0.0000 O   0  0  0  0  0  0  0  0  0  0  0  0
    1.4289   -2.4750    0.0000 N   0  0  0  0  0  0  0  0  0  0  0  0
    2.1434   -2.8875    0.0000 C   0  0  0  0  0  0  0  0  0  0  0  0
    2.1434   -3.7125    0.0000 N   0  0  0  0  0  0  0  0  0  0  0  0
    2.8579   -2.4750    0.0000 N   0  0  0  0  0  0  0  0  0  0  0  0
    3.5724   -2.8875    0.0000 C   0  0  0  0  0  0  0  0  0  0  0  0
    4.2868   -2.4750    0.0000 C   0  0  0  0  0  0  0  0  0  0  0  0
    5.0013   -2.8875    0.0000 C   0  0  0  0  0  0  0  0  0  0  0  0
    5.0013   -3.7125    0.0000 C   0  0  0  0  0  0  0  0  0  0  0  0
    4.2868   -4.1250    0.0000 C   0  0  0  0  0  0  0  0  0  0  0  0
    3.5724   -3.7125    0.0000 C   0  0  0  0  0  0  0  0  0  0  0  0
  1  2  1  0  0  0  0
  2  3  2  0  0  0  0
  2  8  1  0  0  0  0
  3  4  1  0  0  0  0
  4  5  1  0  0  0  0
  4  6  2  0  0  0  0
  6  7  1  0  0  0  0
  6 10  1  0  0  0  0
  7  8  2  0  0  0  0
  8  9  1  0  0  0  0
 10 11  2  0  0  0  0
 10 12  1  0  0  0  0
 12 13  1  0  0  0  0
 13 14  2  0  0  0  0
 13 15  1  0  0  0  0
 15 16  1  0  0  0  0
 16 17  2  0  0  0  0
 16 21  1  0  0  0  0
 17 18  1  0  0  0  0
 18 19  2  0  0  0  0
 19 20  1  0  0  0  0
 20 21  2  0  0  0  0
M  END
$$$$

 OpenBabel12191814062D

 12 12  0  0  0  0  0  0  0  0999 V2000
    0.0000    2.4750    0.0000 N   0  0  0  0  0  0  0  0  0  0  0  0
    0.7145    2.0625    0.0000 C   0  0  0  0  0  0  0  0  0  0  0  0
    0.7145    1.2375    0.0000 C   0  0  0  0  0  0  0  0  0  0  0  0
    1.4289    0.8250    0.0000 C   0  0  0  0  0  0  0  0  0  0  0  0
    1.4289   -0.0000    0.0000 C   0  0  0  0  0  0  0  0  0  0  0  0
    0.7145   -0.4125    0.0000 C   0  0  0  0  0  0  0  0  0  0  0  0
    0.0000    0.0000    0.0000 C   0  0  0  0  0  0  0  0  0  0  0  0
    0.0000    0.8250    0.0000 C   0  0  0  0  0  0  0  0  0  0  0  0
    0.7145   -1.2375    0.0000 S   0  0  0  0  0  0  0  0  0  0  0  0
    0.7145   -2.0625    0.0000 N   0  0  0  0  0  0  0  0  0  0  0  0
   -0.1105   -1.2375    0.0000 O   0  0  0  0  0  0  0  0  0  0  0  0
    1.5395   -1.2375    0.0000 O   0  0  0  0  0  0  0  0  0  0  0  0
  1  2  1  0  0  0  0
  2  3  1  0  0  0  0
  3  4  2  0  0  0  0
  3  8  1  0  0  0  0
  4  5  1  0  0  0  0
  5  6  2  0  0  0  0
  6  7  1  0  0  0  0
  6  9  1  0  0  0  0
  7  8  2  0  0  0  0
  9 10  1  0  0  0  0
  9 11  2  0  0  0  0
  9 12  2  0  0  0  0
M  END
$$$$

 OpenBabel12191814062D

 21 22  0  0  0  0  0  0  0  0999 V2000
   -0.7145   -2.8875    0.0000 N   0  0  0  0  0  0  0  0  0  0  0  0
    0.0000   -2.4750    0.0000 C   0  0  0  0  0  0  0  0  0  0  0  0
    0.0000   -1.6500    0.0000 C   0  0  0  0  0  0  0  0  0  0  0  0
    0.7145   -1.2375    0.0000 C   0  0  3  0  0  0  0  0  0  0  0  0
    1.4289   -1.6500    0.0000 O   0  0  0  0  0  0  0  0  0  0  0  0
    1.4289   -2.4750    0.0000 C   0  0  0  0  0  0  0  0  0  0  0  0
    2.1434   -2.8875    0.0000 C   0  0  0  0  0  0  0  0  0  0  0  0
    2.1434   -3.7125    0.0000 C   0  0  0  0  0  0  0  0  0  0  0  0
    1.4289   -4.1250    0.0000 C   0  0  0  0  0  0  0  0  0  0  0  0
    0.7145   -3.7125    0.0000 C   0  0  0  0  0  0  0  0  0  0  0  0
    0.7145   -2.8875    0.0000 C   0  0  0  0  0  0  0  0  0  0  0  0
    1.4289   -4.9500    0.0000 C   0  0  0  0  0  0  0  0  0  0  0  0
    1.4289   -5.7750    0.0000 F   0  0  0  0  0  0  0  0  0  0  0  0
    2.2539   -4.9500    0.0000 F   0  0  0  0  0  0  0  0  0  0  0  0
    0.6039   -4.9500    0.0000 F   0  0  0  0  0  0  0  0  0  0  0  0
    0.7145   -0.4125    0.0000 C   0  0  0  0  0  0  0  0  0  0  0  0
    0.0000    0.0000    0.0000 C   0  0  0  0  0  0  0  0  0  0  0  0
    0.0000    0.8250    0.0000 C   0  0  0  0  0  0  0  0  0  0  0  0
    0.7145    1.2375    0.0000 C   0  0  0  0  0  0  0  0  0  0  0  0
    1.4289    0.8250    0.0000 C   0  0  0  0  0  0  0  0  0  0  0  0
    1.4289   -0.0000    0.0000 C   0  0  0  0  0  0  0  0  0  0  0  0
  1  2  1  0  0  0  0
  2  3  1  0  0  0  0
  3  4  1  0  0  0  0
  4  5  1  0  0  0  0
  4 16  1  0  0  0  0
  5  6  1  0  0  0  0
  6  7  2  0  0  0  0
  6 11  1  0  0  0  0
  7  8  1  0  0  0  0
  8  9  2  0  0  0  0
  9 10  1  0  0  0  0
  9 12  1  0  0  0  0
 10 11  2  0  0  0  0
 12 13  1  0  0  0  0
 12 14  1  0  0  0  0
 12 15  1  0  0  0  0
 16 17  2  0  0  0  0
 16 21  1  0  0  0  0
 17 18  1  0  0  0  0
 18 19  2  0  0  0  0
 19 20  1  0  0  0  0
 20 21  2  0  0  0  0
M  END
$$$$

 OpenBabel12191814062D

 20 22  0  0  0  0  0  0  0  0999 V2000
    2.1434    1.2375    0.0000 N   0  0  0  0  0  0  0  0  0  0  0  0
    2.8579    0.8250    0.0000 C   0  0  0  0  0  0  0  0  0  0  0  0
    3.5724    1.2375    0.0000 C   0  0  0  0  0  0  0  0  0  0  0  0
    4.2868    0.8250    0.0000 C   0  0  0  0  0  0  0  0  0  0  0  0
    5.0013    1.2375    0.0000 C   0  0  0  0  0  0  0  0  0  0  0  0
    5.7158    0.8250    0.0000 N   0  0  0  0  0  0  0  0  0  0  0  0
    6.4302    1.2375    0.0000 C   0  0  0  0  0  0  0  0  0  0  0  0
    6.4302    2.0625    0.0000 C   0  0  0  0  0  0  0  0  0  0  0  0
    7.1447    2.4750    0.0000 C   0  0  0  0  0  0  0  0  0  0  0  0
    7.8592    2.0625    0.0000 C   0  0  0  0  0  0  0  0  0  0  0  0
    7.8592    1.2375    0.0000 C   0  0  0  0  0  0  0  0  0  0  0  0
    7.1447    0.8250    0.0000 C   0  0  0  0  0  0  0  0  0  0  0  0
    7.1447    0.0000    0.0000 S   0  0  0  0  0  0  0  0  0  0  0  0
    6.4302   -0.4125    0.0000 C   0  0  0  0  0  0  0  0  0  0  0  0
    6.4302   -1.2375    0.0000 C   0  0  0  0  0  0  0  0  0  0  0  0
    5.7158   -1.6500    0.0000 C   0  0  0  0  0  0  0  0  0  0  0  0
    5.0013   -1.2375    0.0000 C   0  0  0  0  0  0  0  0  0  0  0  0
    4.2868   -1.6500    0.0000 Cl  0  0  0  0  0  0  0  0  0  0  0  0
    5.0013   -0.4125    0.0000 C   0  0  0  0  0  0  0  0  0  0  0  0
    5.7158    0.0000    0.0000 C   0  0  0  0  0  0  0  0  0  0  0  0
  1  2  1  0  0  0  0
  2  3  1  0  0  0  0
  3  4  1  0  0  0  0
  4  5  1  0  0  0  0
  5  6  1  0  0  0  0
  6  7  1  0  0  0  0
  6 20  1  0  0  0  0
  7  8  2  0  0  0  0
  7 12  1  0  0  0  0
  8  9  1  0  0  0  0
  9 10  2  0  0  0  0
 10 11  1  0  0  0  0
 11 12  2  0  0  0  0
 12 13  1  0  0  0  0
 13 14  1  0  0  0  0
 14 15  2  0  0  0  0
 14 20  1  0  0  0  0
 15 16  1  0  0  0  0
 16 17  2  0  0  0  0
 17 18  1  0  0  0  0
 17 19  1  0  0  0  0
 19 20  2  0  0  0  0
M  END
$$$$

 OpenBabel12191814062D

 18 20  0  0  0  0  0  0  0  0999 V2000
    1.4289    3.3000    0.0000 N   0  0  0  0  0  0  0  0  0  0  0  0
    1.4289    2.4750    0.0000 C   0  0  0  0  0  0  0  0  0  0  0  0
    2.1434    2.0625    0.0000 C   0  0  0  0  0  0  0  0  0  0  0  0
    2.1434    1.2375    0.0000 N   0  0  0  0  0  0  0  0  0  0  0  0
    2.8579    0.8250    0.0000 C   0  0  0  0  0  0  0  0  0  0  0  0
    3.5724    1.2375    0.0000 C   0  0  0  0  0  0  0  0  0  0  0  0
    4.2868    0.8250    0.0000 C   0  0  0  0  0  0  0  0  0  0  0  0
    4.2868   -0.0000    0.0000 C   0  0  0  0  0  0  0  0  0  0  0  0
    3.5724   -0.4125    0.0000 C   0  0  0  0  0  0  0  0  0  0  0  0
    2.8579    0.0000    0.0000 C   0  0  0  0  0  0  0  0  0  0  0  0
    2.1434   -0.4125    0.0000 S   0  0  0  0  0  0  0  0  0  0  0  0
    1.4289    0.0000    0.0000 C   0  0  0  0  0  0  0  0  0  0  0  0
    0.7145   -0.4125    0.0000 C   0  0  0  0  0  0  0  0  0  0  0  0
    0.0000    0.0000    0.0000 C   0  0  0  0  0  0  0  0  0  0  0  0
    0.0000    0.8250    0.0000 C   0  0  0  0  0  0  0  0  0  0  0  0
   -0.7145    1.2375    0.0000 Cl  0  0  0  0  0  0  0  0  0  0  0  0
    0.7145    1.2375    0.0000 C   0  0  0  0  0  0  0  0  0  0  0  0
    1.4289    0.8250    0.0000 C   0  0  0  0  0  0  0  0  0  0  0  0
  1  2  1  0  0  0  0
  2  3  1  0  0  0  0
  3  4  1  0  0  0  0
  4  5  1  0  0  0  0
  4 18  1  0  0  0  0
  5  6  2  0  0  0  0
  5 10  1  0  0  0  0
  6  7  1  0  0  0  0
  7  8  2  0  0  0  0
  8  9  1  0  0  0  0
  9 10  2  0  0  0  0
 10 11  1  0  0  0  0
 11 12  1  0  0  0  0
 12 13  2  0  0  0  0
 12 18  1  0  0  0  0
 13 14  1  0  0  0  0
 14 15  2  0  0  0  0
 15 16  1  0  0  0  0
 15 17  1  0  0  0  0
 17 18  2  0  0  0  0
M  END
$$$$

 OpenBabel12191814062D

 26 28  0  0  0  0  0  0  0  0999 V2000
   -2.1434   -2.0625    0.0000 N   0  0  0  0  0  0  0  0  0  0  0  0
   -1.4289   -1.6500    0.0000 S   0  0  0  0  0  0  0  0  0  0  0  0
   -1.0164   -2.3645    0.0000 O   0  0  0  0  0  0  0  0  0  0  0  0
   -1.8414   -0.9355    0.0000 O   0  0  0  0  0  0  0  0  0  0  0  0
   -0.7145   -1.2375    0.0000 C   0  0  0  0  0  0  0  0  0  0  0  0
    0.0000   -1.6500    0.0000 C   0  0  0  0  0  0  0  0  0  0  0  0
    0.7145   -1.2375    0.0000 C   0  0  0  0  0  0  0  0  0  0  0  0
    0.7145   -0.4125    0.0000 C   0  0  0  0  0  0  0  0  0  0  0  0
    1.4289   -0.0000    0.0000 N   0  0  0  0  0  0  0  0  0  0  0  0
    2.1434   -0.4125    0.0000 C   0  0  0  0  0  0  0  0  0  0  0  0
    2.8579   -0.0000    0.0000 C   0  0  0  0  0  0  0  0  0  0  0  0
    3.5724   -0.4125    0.0000 S   0  0  0  0  0  0  0  0  0  0  0  0
    4.2868   -0.0000    0.0000 C   0  0  0  0  0  0  0  0  0  0  0  0
    5.0013   -0.4125    0.0000 C   0  0  0  0  0  0  0  0  0  0  0  0
    5.7158   -0.0000    0.0000 C   0  0  0  0  0  0  0  0  0  0  0  0
    6.4302   -0.4125    0.0000 C   0  0  0  0  0  0  0  0  0  0  0  0
    6.4302   -1.2375    0.0000 C   0  0  0  0  0  0  0  0  0  0  0  0
    5.7158   -1.6500    0.0000 C   0  0  0  0  0  0  0  0  0  0  0  0
    5.0013   -1.2375    0.0000 C   0  0  0  0  0  0  0  0  0  0  0  0
    2.1434   -1.2375    0.0000 N   0  0  0  0  0  0  0  0  0  0  0  0
    1.4289   -1.6500    0.0000 S   0  0  0  0  0  0  0  0  0  0  0  0
    1.8163   -2.3784    0.0000 O   0  0  0  0  0  0  0  0  0  0  0  0
    1.0416   -2.3784    0.0000 O   0  0  0  0  0  0  0  0  0  0  0  0
    0.0000   -0.0000    0.0000 C   0  0  0  0  0  0  0  0  0  0  0  0
   -0.7145   -0.4125    0.0000 C   0  0  0  0  0  0  0  0  0  0  0  0
   -1.4289    0.0000    0.0000 Cl  0  0  0  0  0  0  0  0  0  0  0  0
  1  2  1  0  0  0  0
  2  3  2  0  0  0  0
  2  4  2  0  0  0  0
  2  5  1  0  0  0  0
  5  6  2  0  0  0  0
  5 25  1  0  0  0  0
  6  7  1  0  0  0  0
  7  8  2  0  0  0  0
  7 21  1  0  0  0  0
  8  9  1  0  0  0  0
  8 24  1  0  0  0  0
  9 10  1  0  0  0  0
 10 11  1  0  0  0  0
 10 20  2  0  0  0  0
 11 12  1  0  0  0  0
 12 13  1  0  0  0  0
 13 14  1  0  0  0  0
 14 15  2  0  0  0  0
 14 19  1  0  0  0  0
 15 16  1  0  0  0  0
 16 17  2  0  0  0  0
 17 18  1  0  0  0  0
 18 19  2  0  0  0  0
 20 21  1  0  0  0  0
 21 22  2  0  0  0  0
 21 23  2  0  0  0  0
 24 25  2  0  0  0  0
 25 26  1  0  0  0  0
M  END
$$$$

 OpenBabel12191814062D

 21 23  0  0  0  0  0  0  0  0999 V2000
    5.4957    5.6479    0.0000 O   0  0  0  0  0  0  0  0  0  0  0  0
    5.4957    4.8229    0.0000 C   0  0  0  0  0  0  0  0  0  0  0  0
    4.7812    4.4104    0.0000 C   0  0  0  0  0  0  0  0  0  0  0  0
    4.7812    3.5854    0.0000 C   0  0  0  0  0  0  0  0  0  0  0  0
    4.0668    3.1729    0.0000 C   0  0  0  0  0  0  0  0  0  0  0  0
    4.0668    2.3479    0.0000 C   0  0  0  0  0  0  0  0  0  0  0  0
    3.3523    1.9354    0.0000 C   0  0  0  0  0  0  0  0  0  0  0  0
    3.3523    1.1104    0.0000 C   0  0  0  0  0  0  0  0  0  0  0  0
    2.6378    0.6979    0.0000 C   0  0  0  0  0  0  0  0  0  0  0  0
    1.9233    1.1104    0.0000 C   0  0  0  0  0  0  0  0  0  0  0  0
    1.1387    0.8555    0.0000 O   0  0  0  0  0  0  0  0  0  0  0  0
    0.6538    1.5229    0.0000 C   0  0  0  0  0  0  0  0  0  0  0  0
    1.1387    2.1904    0.0000 O   0  0  0  0  0  0  0  0  0  0  0  0
    1.9233    1.9354    0.0000 C   0  0  0  0  0  0  0  0  0  0  0  0
    2.6378    2.3479    0.0000 C   0  0  0  0  0  0  0  0  0  0  0  0
    6.2102    4.4104    0.0000 N   0  0  0  0  0  0  0  0  0  0  0  0
    6.9246    4.8229    0.0000 C   0  0  0  0  0  0  0  0  0  0  0  0
    7.6391    4.4104    0.0000 C   0  0  0  0  0  0  0  0  0  0  0  0
    7.6391    3.5854    0.0000 C   0  0  0  0  0  0  0  0  0  0  0  0
    6.9246    3.1729    0.0000 C   0  0  0  0  0  0  0  0  0  0  0  0
    6.2102    3.5854    0.0000 C   0  0  0  0  0  0  0  0  0  0  0  0
  1  2  2  0  0  0  0
  2  3  1  0  0  0  0
  2 16  1  0  0  0  0
  3  4  2  0  0  0  0
  4  5  1  0  0  0  0
  5  6  2  0  0  0  0
  6  7  1  0  0  0  0
  7  8  2  0  0  0  0
  7 15  1  0  0  0  0
  8  9  1  0  0  0  0
  9 10  2  0  0  0  0
 10 11  1  0  0  0  0
 10 14  1  0  0  0  0
 11 12  1  0  0  0  0
 12 13  1  0  0  0  0
 13 14  1  0  0  0  0
 14 15  2  0  0  0  0
 16 17  1  0  0  0  0
 16 21  1  0  0  0  0
 17 18  1  0  0  0  0
 18 19  1  0  0  0  0
 19 20  1  0  0  0  0
 20 21  1  0  0  0  0
M  END
$$$$

 OpenBabel12191814062D

 56 63  0  0  0  0  0  0  0  0999 V2000
   -6.9945   -2.0939    0.0000 O   0  0  0  0  0  0  0  0  0  0  0  0
   -6.1875   -1.9224    0.0000 C   0  0  0  0  0  0  0  0  0  0  0  0
   -5.4730   -2.3349    0.0000 C   0  0  0  0  0  0  0  0  0  0  0  0
   -5.4730   -3.1599    0.0000 P   0  0  0  0  0  0  0  0  0  0  0  0
   -5.4730   -3.9849    0.0000 C   0  0  0  0  0  0  0  0  0  0  0  0
   -4.7586   -4.3974    0.0000 C   0  0  0  0  0  0  0  0  0  0  0  0
   -4.7586   -5.2224    0.0000 C   0  0  0  0  0  0  0  0  0  0  0  0
   -5.4730   -5.6349    0.0000 C   0  0  0  0  0  0  0  0  0  0  0  0
   -6.1875   -5.2224    0.0000 C   0  0  0  0  0  0  0  0  0  0  0  0
   -6.1875   -4.3974    0.0000 C   0  0  0  0  0  0  0  0  0  0  0  0
   -6.2980   -3.1599    0.0000 C   0  0  0  0  0  0  0  0  0  0  0  0
   -6.7105   -3.8743    0.0000 C   0  0  0  0  0  0  0  0  0  0  0  0
   -7.5355   -3.8743    0.0000 C   0  0  0  0  0  0  0  0  0  0  0  0
   -7.9480   -3.1599    0.0000 C   0  0  0  0  0  0  0  0  0  0  0  0
   -7.5355   -2.4454    0.0000 C   0  0  0  0  0  0  0  0  0  0  0  0
   -6.7105   -2.4454    0.0000 C   0  0  0  0  0  0  0  0  0  0  0  0
   -4.6480   -3.1599    0.0000 C   0  0  0  0  0  0  0  0  0  0  0  0
   -4.2355   -2.4454    0.0000 C   0  0  0  0  0  0  0  0  0  0  0  0
   -3.4105   -2.4454    0.0000 C   0  0  0  0  0  0  0  0  0  0  0  0
   -2.9980   -3.1599    0.0000 C   0  0  0  0  0  0  0  0  0  0  0  0
   -3.4105   -3.8743    0.0000 C   0  0  0  0  0  0  0  0  0  0  0  0
   -4.2355   -3.8743    0.0000 C   0  0  0  0  0  0  0  0  0  0  0  0
   -6.1875   -1.0974    0.0000 C   0  0  0  0  0  0  0  0  0  0  0  0
   -5.4730   -0.6849    0.0000 C   0  0  0  0  0  0  0  0  0  0  0  0
   -5.4730    0.1401    0.0000 C   0  0  0  0  0  0  0  0  0  0  0  0
   -6.1875    0.5526    0.0000 C   0  0  0  0  0  0  0  0  0  0  0  0
   -6.9020    0.1401    0.0000 C   0  0  0  0  0  0  0  0  0  0  0  0
   -6.9020   -0.6849    0.0000 C   0  0  0  0  0  0  0  0  0  0  0  0
   -7.6164   -1.0974    0.0000 C   0  0  0  0  0  0  0  0  0  0  0  0
   -7.6164   -1.9224    0.0000 C   0  0  0  0  0  0  0  0  0  0  0  0
   -8.3309   -2.3349    0.0000 C   0  0  0  0  0  0  0  0  0  0  0  0
   -9.0454   -1.9224    0.0000 C   0  0  0  0  0  0  0  0  0  0  0  0
   -9.0454   -1.0974    0.0000 C   0  0  0  0  0  0  0  0  0  0  0  0
   -8.3309   -0.6849    0.0000 C   0  0  0  0  0  0  0  0  0  0  0  0
   -8.3309    0.1401    0.0000 C   0  0  0  0  0  0  0  0  0  0  0  0
   -7.5239    0.3117    0.0000 O   0  0  0  0  0  0  0  0  0  0  0  0
   -9.0454    0.5526    0.0000 C   0  0  0  0  0  0  0  0  0  0  0  0
   -9.0454    1.3776    0.0000 P   0  0  0  0  0  0  0  0  0  0  0  0
   -9.0454    2.2026    0.0000 C   0  0  0  0  0  0  0  0  0  0  0  0
   -9.7599    2.6151    0.0000 C   0  0  0  0  0  0  0  0  0  0  0  0
   -9.7599    3.4401    0.0000 C   0  0  0  0  0  0  0  0  0  0  0  0
   -9.0454    3.8526    0.0000 C   0  0  0  0  0  0  0  0  0  0  0  0
   -8.3309    3.4401    0.0000 C   0  0  0  0  0  0  0  0  0  0  0  0
   -8.3309    2.6151    0.0000 C   0  0  0  0  0  0  0  0  0  0  0  0
   -8.2204    1.3776    0.0000 C   0  0  0  0  0  0  0  0  0  0  0  0
   -7.8079    2.0921    0.0000 C   0  0  0  0  0  0  0  0  0  0  0  0
   -6.9829    2.0921    0.0000 C   0  0  0  0  0  0  0  0  0  0  0  0
   -6.5704    1.3776    0.0000 C   0  0  0  0  0  0  0  0  0  0  0  0
   -6.9829    0.6632    0.0000 C   0  0  0  0  0  0  0  0  0  0  0  0
   -7.8079    0.6632    0.0000 C   0  0  0  0  0  0  0  0  0  0  0  0
   -9.8704    1.3776    0.0000 C   0  0  0  0  0  0  0  0  0  0  0  0
  -10.2829    0.6632    0.0000 C   0  0  0  0  0  0  0  0  0  0  0  0
  -11.1079    0.6632    0.0000 C   0  0  0  0  0  0  0  0  0  0  0  0
  -11.5204    1.3776    0.0000 C   0  0  0  0  0  0  0  0  0  0  0  0
  -11.1079    2.0921    0.0000 C   0  0  0  0  0  0  0  0  0  0  0  0
  -10.2829    2.0921    0.0000 C   0  0  0  0  0  0  0  0  0  0  0  0
  1  2  2  0  0  0  0
  2  3  1  0  0  0  0
  2 23  1  0  0  0  0
  3  4  2  0  0  0  0
  4  5  1  0  0  0  0
  4 11  1  0  0  0  0
  4 17  1  0  0  0  0
  5  6  2  0  0  0  0
  5 10  1  0  0  0  0
  6  7  1  0  0  0  0
  7  8  2  0  0  0  0
  8  9  1  0  0  0  0
  9 10  2  0  0  0  0
 11 12  2  0  0  0  0
 11 16  1  0  0  0  0
 12 13  1  0  0  0  0
 13 14  2  0  0  0  0
 14 15  1  0  0  0  0
 15 16  2  0  0  0  0
 17 18  2  0  0  0  0
 17 22  1  0  0  0  0
 18 19  1  0  0  0  0
 19 20  2  0  0  0  0
 20 21  1  0  0  0  0
 21 22  2  0  0  0  0
 23 24  2  0  0  0  0
 23 28  1  0  0  0  0
 24 25  1  0  0  0  0
 25 26  2  0  0  0  0
 26 27  1  0  0  0  0
 27 28  2  0  0  0  0
 28 29  1  0  0  0  0
 29 30  2  0  0  0  0
 29 34  1  0  0  0  0
 30 31  1  0  0  0  0
 31 32  2  0  0  0  0
 32 33  1  0  0  0  0
 33 34  2  0  0  0  0
 34 35  1  0  0  0  0
 35 36  2  0  0  0  0
 35 37  1  0  0  0  0
 37 38  2  0  0  0  0
 38 39  1  0  0  0  0
 38 45  1  0  0  0  0
 38 51  1  0  0  0  0
 39 40  2  0  0  0  0
 39 44  1  0  0  0  0
 40 41  1  0  0  0  0
 41 42  2  0  0  0  0
 42 43  1  0  0  0  0
 43 44  2  0  0  0  0
 45 46  2  0  0  0  0
 45 50  1  0  0  0  0
 46 47  1  0  0  0  0
 47 48  2  0  0  0  0
 48 49  1  0  0  0  0
 49 50  2  0  0  0  0
 51 52  2  0  0  0  0
 51 56  1  0  0  0  0
 52 53  1  0  0  0  0
 53 54  2  0  0  0  0
 54 55  1  0  0  0  0
 55 56  2  0  0  0  0
M  END
$$$$

 OpenBabel12191814062D

 42 48  0  0  0  0  0  0  0  0999 V2000
    6.2102    4.4104    0.0000 O   0  0  0  0  0  0  0  0  0  0  0  0
    6.2102    3.5854    0.0000 C   0  0  0  0  0  0  0  0  0  0  0  0
    5.4957    3.1729    0.0000 C   0  0  3  0  0  0  0  0  0  0  0  0
    5.4957    2.3479    0.0000 C   0  0  0  0  0  0  0  0  0  0  0  0
    4.7812    1.9354    0.0000 C   0  0  0  0  0  0  0  0  0  0  0  0
    4.0668    2.3479    0.0000 C   0  0  3  0  0  0  0  0  0  0  0  0
    4.0668    3.1729    0.0000 C   0  0  3  0  0  0  0  0  0  0  0  0
    3.3523    3.5854    0.0000 C   0  0  0  0  0  0  0  0  0  0  0  0
    2.6378    3.1729    0.0000 C   0  0  0  0  0  0  0  0  0  0  0  0
    1.9233    3.5854    0.0000 C   0  0  0  0  0  0  0  0  0  0  0  0
    1.2089    3.1729    0.0000 C   0  0  0  0  0  0  0  0  0  0  0  0
    0.4944    3.5854    0.0000 C   0  0  0  0  0  0  0  0  0  0  0  0
    0.4944    4.4104    0.0000 C   0  0  0  0  0  0  0  0  0  0  0  0
   -0.1187    4.9625    0.0000 O   0  0  0  0  0  0  0  0  0  0  0  0
    0.2169    5.7162    0.0000 C   0  0  0  0  0  0  0  0  0  0  0  0
    1.0373    5.6299    0.0000 O   0  0  0  0  0  0  0  0  0  0  0  0
    1.2089    4.8229    0.0000 C   0  0  0  0  0  0  0  0  0  0  0  0
    1.9233    4.4104    0.0000 C   0  0  0  0  0  0  0  0  0  0  0  0
    4.7812    3.5854    0.0000 C   0  0  3  0  0  0  0  0  0  0  0  0
    4.7812    4.4104    0.0000 C   0  0  0  0  0  0  0  0  0  0  0  0
    5.4957    4.8229    0.0000 O   0  0  0  0  0  0  0  0  0  0  0  0
    4.0668    4.8229    0.0000 N   0  0  0  0  0  0  0  0  0  0  0  0
    3.3523    4.4104    0.0000 C   0  0  0  0  0  0  0  0  0  0  0  0
    2.6378    4.8229    0.0000 C   0  0  0  0  0  0  0  0  0  0  0  0
    2.6378    5.6479    0.0000 C   0  0  0  0  0  0  0  0  0  0  0  0
    3.3523    6.0604    0.0000 C   0  0  0  0  0  0  0  0  0  0  0  0
    4.0668    5.6479    0.0000 C   0  0  0  0  0  0  0  0  0  0  0  0
    3.3523    1.9354    0.0000 C   0  0  0  0  0  0  0  0  0  0  0  0
    3.3523    1.1104    0.0000 C   0  0  0  0  0  0  0  0  0  0  0  0
    2.6378    0.6979    0.0000 C   0  0  0  0  0  0  0  0  0  0  0  0
    1.9233    1.1104    0.0000 C   0  0  0  0  0  0  0  0  0  0  0  0
    1.1387    0.8555    0.0000 O   0  0  0  0  0  0  0  0  0  0  0  0
    0.6538    1.5229    0.0000 C   0  0  0  0  0  0  0  0  0  0  0  0
    1.1387    2.1904    0.0000 O   0  0  0  0  0  0  0  0  0  0  0  0
    1.9233    1.9354    0.0000 C   0  0  0  0  0  0  0  0  0  0  0  0
    2.6378    2.3479    0.0000 C   0  0  0  0  0  0  0  0  0  0  0  0
    6.9246    3.1729    0.0000 N   0  0  0  0  0  0  0  0  0  0  0  0
    7.6391    3.5854    0.0000 C   0  0  0  0  0  0  0  0  0  0  0  0
    8.3536    3.1729    0.0000 C   0  0  0  0  0  0  0  0  0  0  0  0
    8.3536    2.3479    0.0000 C   0  0  0  0  0  0  0  0  0  0  0  0
    7.6391    1.9354    0.0000 C   0  0  0  0  0  0  0  0  0  0  0  0
    6.9246    2.3479    0.0000 C   0  0  0  0  0  0  0  0  0  0  0  0
  1  2  2  0  0  0  0
  2  3  1  0  0  0  0
  2 37  1  0  0  0  0
  3  4  1  0  0  0  0
  3 19  1  0  0  0  0
  4  5  2  0  0  0  0
  5  6  1  0  0  0  0
  6  7  1  0  0  0  0
  6 28  1  0  0  0  0
  7  8  1  0  0  0  0
  7 19  1  0  0  0  0
  8  9  2  0  0  0  0
  9 10  1  0  0  0  0
 10 11  2  0  0  0  0
 10 18  1  0  0  0  0
 11 12  1  0  0  0  0
 12 13  2  0  0  0  0
 13 14  1  0  0  0  0
 13 17  1  0  0  0  0
 14 15  1  0  0  0  0
 15 16  1  0  0  0  0
 16 17  1  0  0  0  0
 17 18  2  0  0  0  0
 19 20  1  0  0  0  0
 20 21  2  0  0  0  0
 20 22  1  0  0  0  0
 22 23  1  0  0  0  0
 22 27  1  0  0  0  0
 23 24  1  0  0  0  0
 24 25  1  0  0  0  0
 25 26  1  0  0  0  0
 26 27  1  0  0  0  0
 28 29  2  0  0  0  0
 28 36  1  0  0  0  0
 29 30  1  0  0  0  0
 30 31  2  0  0  0  0
 31 32  1  0  0  0  0
 31 35  1  0  0  0  0
 32 33  1  0  0  0  0
 33 34  1  0  0  0  0
 34 35  1  0  0  0  0
 35 36  2  0  0  0  0
 37 38  1  0  0  0  0
 37 42  1  0  0  0  0
 38 39  1  0  0  0  0
 39 40  1  0  0  0  0
 40 41  1  0  0  0  0
 41 42  1  0  0  0  0
M  END
$$$$

 OpenBabel12191814062D

 35 40  0  0  0  0  0  0  0  0999 V2000
    1.2195    2.7480    0.0000 O   0  0  0  0  0  0  0  0  0  0  0  0
    1.9339    2.3355    0.0000 C   0  0  0  0  0  0  0  0  0  0  0  0
    1.9339    1.5105    0.0000 C   0  0  0  0  0  0  0  0  0  0  0  0
    2.6014    1.0256    0.0000 C   0  0  0  0  0  0  0  0  0  0  0  0
    3.4084    1.1971    0.0000 C   0  0  0  0  0  0  0  0  0  0  0  0
    3.9604    0.5840    0.0000 C   0  0  0  0  0  0  0  0  0  0  0  0
    3.7054   -0.2006    0.0000 C   0  0  0  0  0  0  0  0  0  0  0  0
    2.8985   -0.3721    0.0000 C   0  0  0  0  0  0  0  0  0  0  0  0
    2.3464    0.2410    0.0000 N   0  0  0  0  0  0  0  0  0  0  0  0
    1.5214    0.2410    0.0000 C   0  0  0  0  0  0  0  0  0  0  0  0
    0.9694   -0.3721    0.0000 C   0  0  0  0  0  0  0  0  0  0  0  0
    0.1624   -0.2006    0.0000 N   0  0  0  0  0  0  0  0  0  0  0  0
   -0.0925    0.5840    0.0000 C   0  0  0  0  0  0  0  0  0  0  0  0
    0.4595    1.1971    0.0000 N   0  0  0  0  0  0  0  0  0  0  0  0
    1.2665    1.0256    0.0000 C   0  0  0  0  0  0  0  0  0  0  0  0
    1.2243   -1.1567    0.0000 N   0  0  0  0  0  0  0  0  0  0  0  0
    2.0313   -1.3283    0.0000 C   0  0  0  0  0  0  0  0  0  0  0  0
    2.2863   -2.1129    0.0000 C   0  0  0  0  0  0  0  0  0  0  0  0
    1.7342   -2.7260    0.0000 N   0  0  0  0  0  0  0  0  0  0  0  0
    1.9892   -3.5106    0.0000 C   0  0  0  0  0  0  0  0  0  0  0  0
    1.4371   -4.1237    0.0000 C   0  0  0  0  0  0  0  0  0  0  0  0
    1.6921   -4.9083    0.0000 C   0  0  0  0  0  0  0  0  0  0  0  0
    2.4990   -5.0799    0.0000 C   0  0  0  0  0  0  0  0  0  0  0  0
    2.7540   -5.8645    0.0000 C   0  0  0  0  0  0  0  0  0  0  0  0
    2.2020   -6.4776    0.0000 C   0  0  0  0  0  0  0  0  0  0  0  0
    1.3950   -6.3060    0.0000 C   0  0  0  0  0  0  0  0  0  0  0  0
    1.1400   -5.5214    0.0000 C   0  0  0  0  0  0  0  0  0  0  0  0
    0.9273   -2.5545    0.0000 C   0  0  0  0  0  0  0  0  0  0  0  0
    0.6723   -1.7698    0.0000 C   0  0  0  0  0  0  0  0  0  0  0  0
    2.6484    2.7480    0.0000 C   0  0  0  0  0  0  0  0  0  0  0  0
    2.6484    3.5730    0.0000 C   0  0  0  0  0  0  0  0  0  0  0  0
    3.3629    3.9855    0.0000 C   0  0  0  0  0  0  0  0  0  0  0  0
    4.0774    3.5730    0.0000 C   0  0  0  0  0  0  0  0  0  0  0  0
    4.0774    2.7480    0.0000 C   0  0  0  0  0  0  0  0  0  0  0  0
    3.3629    2.3355    0.0000 C   0  0  0  0  0  0  0  0  0  0  0  0
  1  2  2  0  0  0  0
  2  3  1  0  0  0  0
  2 30  1  0  0  0  0
  3  4  2  0  0  0  0
  3 15  1  0  0  0  0
  4  5  1  0  0  0  0
  4  9  1  0  0  0  0
  5  6  1  0  0  0  0
  6  7  1  0  0  0  0
  7  8  1  0  0  0  0
  8  9  1  0  0  0  0
  9 10  1  0  0  0  0
 10 11  2  0  0  0  0
 10 15  1  0  0  0  0
 11 12  1  0  0  0  0
 11 16  1  0  0  0  0
 12 13  2  0  0  0  0
 13 14  1  0  0  0  0
 14 15  2  0  0  0  0
 16 17  1  0  0  0  0
 16 29  1  0  0  0  0
 17 18  1  0  0  0  0
 18 19  1  0  0  0  0
 19 20  1  0  0  0  0
 19 28  1  0  0  0  0
 20 21  1  0  0  0  0
 21 22  1  0  0  0  0
 22 23  2  0  0  0  0
 22 27  1  0  0  0  0
 23 24  1  0  0  0  0
 24 25  2  0  0  0  0
 25 26  1  0  0  0  0
 26 27  2  0  0  0  0
 28 29  1  0  0  0  0
 30 31  2  0  0  0  0
 30 35  1  0  0  0  0
 31 32  1  0  0  0  0
 32 33  2  0  0  0  0
 33 34  1  0  0  0  0
 34 35  2  0  0  0  0
M  END
$$$$

 OpenBabel12191814062D

 24 27  0  0  0  0  0  0  0  0999 V2000
   -0.5837   -1.4124    0.0000 O   0  0  0  0  0  0  0  0  0  0  0  0
   -0.1712   -0.6979    0.0000 C   0  0  0  0  0  0  0  0  0  0  0  0
    0.6538   -0.6979    0.0000 C   0  0  3  0  0  0  0  0  0  0  0  0
    1.1387   -0.0305    0.0000 O   0  0  0  0  0  0  0  0  0  0  0  0
    1.9233   -0.2854    0.0000 C   0  0  0  0  0  0  0  0  0  0  0  0
    2.6378    0.1271    0.0000 C   0  0  0  0  0  0  0  0  0  0  0  0
    3.3523   -0.2854    0.0000 C   0  0  0  0  0  0  0  0  0  0  0  0
    3.3523   -1.1104    0.0000 C   0  0  0  0  0  0  0  0  0  0  0  0
    2.6378   -1.5229    0.0000 C   0  0  0  0  0  0  0  0  0  0  0  0
    1.9233   -1.1104    0.0000 C   0  0  0  0  0  0  0  0  0  0  0  0
    1.1387   -1.3654    0.0000 C   0  0  3  0  0  0  0  0  0  0  0  0
    0.8838   -2.1500    0.0000 C   0  0  0  0  0  0  0  0  0  0  0  0
    1.4358   -2.7631    0.0000 C   0  0  0  0  0  0  0  0  0  0  0  0
    2.2428   -2.5916    0.0000 C   0  0  0  0  0  0  0  0  0  0  0  0
    2.7948   -3.2047    0.0000 C   0  0  0  0  0  0  0  0  0  0  0  0
    2.5399   -3.9893    0.0000 C   0  0  0  0  0  0  0  0  0  0  0  0
    1.7329   -4.1608    0.0000 C   0  0  0  0  0  0  0  0  0  0  0  0
    1.1809   -3.5477    0.0000 C   0  0  0  0  0  0  0  0  0  0  0  0
   -0.5837    0.0165    0.0000 N   0  0  0  0  0  0  0  0  0  0  0  0
   -1.4087    0.0165    0.0000 C   0  0  0  0  0  0  0  0  0  0  0  0
   -1.8212    0.7310    0.0000 C   0  0  0  0  0  0  0  0  0  0  0  0
   -1.4087    1.4455    0.0000 C   0  0  0  0  0  0  0  0  0  0  0  0
   -0.5837    1.4455    0.0000 C   0  0  0  0  0  0  0  0  0  0  0  0
   -0.1712    0.7310    0.0000 C   0  0  0  0  0  0  0  0  0  0  0  0
  1  2  2  0  0  0  0
  2  3  1  0  0  0  0
  2 19  1  0  0  0  0
  3  4  1  0  0  0  0
  3 11  1  0  0  0  0
  4  5  1  0  0  0  0
  5  6  2  0  0  0  0
  5 10  1  0  0  0  0
  6  7  1  0  0  0  0
  7  8  2  0  0  0  0
  8  9  1  0  0  0  0
  9 10  2  0  0  0  0
 10 11  1  0  0  0  0
 11 12  1  0  0  0  0
 12 13  1  0  0  0  0
 13 14  2  0  0  0  0
 13 18  1  0  0  0  0
 14 15  1  0  0  0  0
 15 16  2  0  0  0  0
 16 17  1  0  0  0  0
 17 18  2  0  0  0  0
 19 20  1  0  0  0  0
 19 24  1  0  0  0  0
 20 21  1  0  0  0  0
 21 22  1  0  0  0  0
 22 23  1  0  0  0  0
 23 24  1  0  0  0  0
M  END
$$$$

 OpenBabel12191814062D

 30 34  0  0  0  0  0  0  0  0999 V2000
    0.7145    2.0625    0.0000 O   0  0  0  0  0  0  0  0  0  0  0  0
    1.4289    2.4750    0.0000 C   0  0  0  0  0  0  0  0  0  0  0  0
    1.4289    3.3000    0.0000 C   0  0  0  0  0  0  0  0  0  0  0  0
    0.7145    3.7125    0.0000 C   0  0  0  0  0  0  0  0  0  0  0  0
   -0.0000    3.3000    0.0000 C   0  0  0  0  0  0  0  0  0  0  0  0
   -0.7145    3.7125    0.0000 C   0  0  0  0  0  0  0  0  0  0  0  0
   -0.7145    4.5375    0.0000 C   0  0  0  0  0  0  0  0  0  0  0  0
   -0.0000    4.9500    0.0000 C   0  0  0  0  0  0  0  0  0  0  0  0
    0.7145    4.5375    0.0000 C   0  0  0  0  0  0  0  0  0  0  0  0
    2.1434    2.0625    0.0000 N   0  0  0  0  0  0  0  0  0  0  0  0
    2.1434    1.2375    0.0000 C   0  0  0  0  0  0  0  0  0  0  0  0
    2.8579    0.8250    0.0000 C   0  0  0  0  0  0  0  0  0  0  0  0
    3.6425    1.0799    0.0000 C   0  0  0  0  0  0  0  0  0  0  0  0
    4.1274    0.4125    0.0000 C   0  0  0  0  0  0  0  0  0  0  0  0
    3.6425   -0.2549    0.0000 N   0  0  0  0  0  0  0  0  0  0  0  0
    3.8974   -1.0396    0.0000 C   0  0  0  0  0  0  0  0  0  0  0  0
    3.3454   -1.6527    0.0000 C   0  0  0  0  0  0  0  0  0  0  0  0
    3.6004   -2.4373    0.0000 C   0  0  0  0  0  0  0  0  0  0  0  0
    3.0483   -3.0504    0.0000 C   0  0  0  0  0  0  0  0  0  0  0  0
    2.2413   -2.8788    0.0000 C   0  0  0  0  0  0  0  0  0  0  0  0
    1.9864   -2.0942    0.0000 C   0  0  0  0  0  0  0  0  0  0  0  0
    2.5384   -1.4811    0.0000 C   0  0  0  0  0  0  0  0  0  0  0  0
    2.8579    0.0000    0.0000 C   0  0  0  0  0  0  0  0  0  0  0  0
    2.1434   -0.4125    0.0000 N   0  0  0  0  0  0  0  0  0  0  0  0
    1.4289    0.0000    0.0000 C   0  0  0  0  0  0  0  0  0  0  0  0
    0.7145   -0.4125    0.0000 C   0  0  0  0  0  0  0  0  0  0  0  0
    0.0000    0.0000    0.0000 C   0  0  0  0  0  0  0  0  0  0  0  0
    0.0000    0.8250    0.0000 C   0  0  0  0  0  0  0  0  0  0  0  0
    0.7145    1.2375    0.0000 C   0  0  0  0  0  0  0  0  0  0  0  0
    1.4289    0.8250    0.0000 C   0  0  0  0  0  0  0  0  0  0  0  0
  1  2  2  0  0  0  0
  2  3  1  0  0  0  0
  2 10  1  0  0  0  0
  3  4  1  0  0  0  0
  4  5  2  0  0  0  0
  4  9  1  0  0  0  0
  5  6  1  0  0  0  0
  6  7  2  0  0  0  0
  7  8  1  0  0  0  0
  8  9  2  0  0  0  0
 10 11  1  0  0  0  0
 11 12  2  0  0  0  0
 11 30  1  0  0  0  0
 12 13  1  0  0  0  0
 12 23  1  0  0  0  0
 13 14  1  0  0  0  0
 14 15  1  0  0  0  0
 15 16  1  0  0  0  0
 15 23  1  0  0  0  0
 16 17  1  0  0  0  0
 17 18  2  0  0  0  0
 17 22  1  0  0  0  0
 18 19  1  0  0  0  0
 19 20  2  0  0  0  0
 20 21  1  0  0  0  0
 21 22  2  0  0  0  0
 23 24  2  0  0  0  0
 24 25  1  0  0  0  0
 25 26  2  0  0  0  0
 25 30  1  0  0  0  0
 26 27  1  0  0  0  0
 27 28  2  0  0  0  0
 28 29  1  0  0  0  0
 29 30  2  0  0  0  0
M  END
$$$$

 OpenBabel12191814062D

 31 33  0  0  0  0  0  0  0  0999 V2000
    0.0787   -5.4177    0.0000 O   0  0  0  0  0  0  0  0  0  0  0  0
   -0.1913   -4.6382    0.0000 C   0  0  0  0  0  0  0  0  0  0  0  0
   -1.0015   -4.4823    0.0000 C   0  0  0  0  0  0  0  0  0  0  0  0
   -1.5415   -5.1059    0.0000 C   0  0  0  0  0  0  0  0  0  0  0  0
   -2.3517   -4.9500    0.0000 C   0  0  0  0  0  0  0  0  0  0  0  0
   -2.8918   -5.5736    0.0000 C   0  0  0  0  0  0  0  0  0  0  0  0
   -3.7019   -5.4177    0.0000 C   0  0  0  0  0  0  0  0  0  0  0  0
   -3.9720   -4.6382    0.0000 C   0  0  0  0  0  0  0  0  0  0  0  0
   -3.4319   -4.0145    0.0000 C   0  0  0  0  0  0  0  0  0  0  0  0
   -2.6217   -4.1704    0.0000 C   0  0  0  0  0  0  0  0  0  0  0  0
    0.3488   -4.0145    0.0000 C   0  0  0  0  0  0  0  0  0  0  0  0
    0.0787   -3.2350    0.0000 C   0  0  0  0  0  0  0  0  0  0  0  0
    0.6188   -2.6113    0.0000 C   0  0  0  0  0  0  0  0  0  0  0  0
    1.4289   -2.7673    0.0000 C   0  0  0  0  0  0  0  0  0  0  0  0
    1.6990   -3.5468    0.0000 C   0  0  0  0  0  0  0  0  0  0  0  0
    1.1589   -4.1704    0.0000 C   0  0  0  0  0  0  0  0  0  0  0  0
    1.4289   -4.9500    0.0000 O   0  0  0  0  0  0  0  0  0  0  0  0
    0.8889   -5.5736    0.0000 C   0  0  0  0  0  0  0  0  0  0  0  0
    1.1589   -6.3532    0.0000 C   0  0  0  0  0  0  0  0  0  0  0  0
    1.9690   -6.5091    0.0000 C   0  0  0  0  0  0  0  0  0  0  0  0
    2.5091   -5.8855    0.0000 C   0  0  0  0  0  0  0  0  0  0  0  0
    3.3193   -6.0414    0.0000 C   0  0  0  0  0  0  0  0  0  0  0  0
    3.8593   -5.4177    0.0000 C   0  0  0  0  0  0  0  0  0  0  0  0
    4.6695   -5.5736    0.0000 C   0  0  0  0  0  0  0  0  0  0  0  0
    5.2096   -4.9500    0.0000 C   0  0  0  0  0  0  0  0  0  0  0  0
    6.0197   -5.1059    0.0000 N   0  0  0  0  0  0  0  0  0  0  0  0
    6.5598   -4.4823    0.0000 C   0  0  0  0  0  0  0  0  0  0  0  0
    7.3699   -4.6382    0.0000 C   0  0  0  0  0  0  0  0  0  0  0  0
    7.6400   -5.4177    0.0000 C   0  0  0  0  0  0  0  0  0  0  0  0
    7.0999   -6.0414    0.0000 C   0  0  0  0  0  0  0  0  0  0  0  0
    6.2897   -5.8855    0.0000 C   0  0  0  0  0  0  0  0  0  0  0  0
  1  2  2  0  0  0  0
  2  3  1  0  0  0  0
  2 11  1  0  0  0  0
  3  4  1  0  0  0  0
  4  5  1  0  0  0  0
  5  6  2  0  0  0  0
  5 10  1  0  0  0  0
  6  7  1  0  0  0  0
  7  8  2  0  0  0  0
  8  9  1  0  0  0  0
  9 10  2  0  0  0  0
 11 12  2  0  0  0  0
 11 16  1  0  0  0  0
 12 13  1  0  0  0  0
 13 14  2  0  0  0  0
 14 15  1  0  0  0  0
 15 16  2  0  0  0  0
 16 17  1  0  0  0  0
 17 18  1  0  0  0  0
 18 19  1  0  0  0  0
 19 20  1  0  0  0  0
 20 21  1  0  0  0  0
 21 22  1  0  0  0  0
 22 23  1  0  0  0  0
 23 24  1  0  0  0  0
 24 25  1  0  0  0  0
 25 26  1  0  0  0  0
 26 27  1  0  0  0  0
 26 31  1  0  0  0  0
 27 28  1  0  0  0  0
 28 29  1  0  0  0  0
 29 30  1  0  0  0  0
 30 31  1  0  0  0  0
M  END
$$$$

 OpenBabel12191814062D

 30 32  0  0  0  0  0  0  0  0999 V2000
    1.4289   -6.6000    0.0000 O   0  0  0  0  0  0  0  0  0  0  0  0
    0.7145   -6.1875    0.0000 C   0  0  0  0  0  0  0  0  0  0  0  0
    0.0000   -6.6000    0.0000 C   0  0  0  0  0  0  0  0  0  0  0  0
   -0.7145   -6.1875    0.0000 C   0  0  0  0  0  0  0  0  0  0  0  0
   -1.4289   -6.6000    0.0000 C   0  0  0  0  0  0  0  0  0  0  0  0
   -1.4289   -7.4250    0.0000 C   0  0  0  0  0  0  0  0  0  0  0  0
   -2.1434   -7.8375    0.0000 C   0  0  0  0  0  0  0  0  0  0  0  0
   -2.8579   -7.4250    0.0000 C   0  0  0  0  0  0  0  0  0  0  0  0
   -2.8579   -6.6000    0.0000 C   0  0  0  0  0  0  0  0  0  0  0  0
   -2.1434   -6.1875    0.0000 C   0  0  0  0  0  0  0  0  0  0  0  0
    0.7145   -5.3625    0.0000 C   0  0  0  0  0  0  0  0  0  0  0  0
    0.0000   -4.9500    0.0000 C   0  0  0  0  0  0  0  0  0  0  0  0
    0.0000   -4.1250    0.0000 C   0  0  0  0  0  0  0  0  0  0  0  0
    0.7145   -3.7125    0.0000 C   0  0  0  0  0  0  0  0  0  0  0  0
    1.4289   -4.1250    0.0000 C   0  0  0  0  0  0  0  0  0  0  0  0
    1.4289   -4.9500    0.0000 C   0  0  0  0  0  0  0  0  0  0  0  0
    2.1434   -5.3625    0.0000 O   0  0  0  0  0  0  0  0  0  0  0  0
    2.8579   -4.9500    0.0000 C   0  0  0  0  0  0  0  0  0  0  0  0
    3.5724   -5.3625    0.0000 C   0  0  0  0  0  0  0  0  0  0  0  0
    4.2868   -4.9500    0.0000 C   0  0  0  0  0  0  0  0  0  0  0  0
    5.0013   -5.3625    0.0000 C   0  0  0  0  0  0  0  0  0  0  0  0
    5.7158   -4.9500    0.0000 C   0  0  0  0  0  0  0  0  0  0  0  0
    6.4302   -5.3625    0.0000 C   0  0  0  0  0  0  0  0  0  0  0  0
    7.1447   -4.9500    0.0000 C   0  0  0  0  0  0  0  0  0  0  0  0
    7.8592   -5.3625    0.0000 N   0  0  0  0  0  0  0  0  0  0  0  0
    8.5737   -4.9500    0.0000 C   0  0  0  0  0  0  0  0  0  0  0  0
    9.2881   -5.3625    0.0000 C   0  0  0  0  0  0  0  0  0  0  0  0
    9.2881   -6.1875    0.0000 C   0  0  0  0  0  0  0  0  0  0  0  0
    8.5737   -6.6000    0.0000 C   0  0  0  0  0  0  0  0  0  0  0  0
    7.8592   -6.1875    0.0000 C   0  0  0  0  0  0  0  0  0  0  0  0
  1  2  2  0  0  0  0
  2  3  1  0  0  0  0
  2 11  1  0  0  0  0
  3  4  1  0  0  0  0
  4  5  1  0  0  0  0
  5  6  2  0  0  0  0
  5 10  1  0  0  0  0
  6  7  1  0  0  0  0
  7  8  2  0  0  0  0
  8  9  1  0  0  0  0
  9 10  2  0  0  0  0
 11 12  2  0  0  0  0
 11 16  1  0  0  0  0
 12 13  1  0  0  0  0
 13 14  2  0  0  0  0
 14 15  1  0  0  0  0
 15 16  2  0  0  0  0
 16 17  1  0  0  0  0
 17 18  1  0  0  0  0
 18 19  1  0  0  0  0
 19 20  1  0  0  0  0
 20 21  1  0  0  0  0
 21 22  1  0  0  0  0
 22 23  1  0  0  0  0
 23 24  1  0  0  0  0
 24 25  1  0  0  0  0
 25 26  1  0  0  0  0
 25 30  1  0  0  0  0
 26 27  1  0  0  0  0
 27 28  1  0  0  0  0
 28 29  1  0  0  0  0
 29 30  1  0  0  0  0
M  END
$$$$

 OpenBabel12191814062D

 29 31  0  0  0  0  0  0  0  0999 V2000
    1.4289   -4.9500    0.0000 O   0  0  0  0  0  0  0  0  0  0  0  0
    1.4289   -4.1250    0.0000 C   0  0  0  0  0  0  0  0  0  0  0  0
    0.7145   -3.7125    0.0000 C   0  0  0  0  0  0  0  0  0  0  0  0
    0.0000   -4.1250    0.0000 C   0  0  0  0  0  0  0  0  0  0  0  0
   -0.7145   -3.7125    0.0000 C   0  0  0  0  0  0  0  0  0  0  0  0
   -1.4289   -4.1250    0.0000 C   0  0  0  0  0  0  0  0  0  0  0  0
   -2.1434   -3.7125    0.0000 C   0  0  0  0  0  0  0  0  0  0  0  0
   -2.1434   -2.8875    0.0000 C   0  0  0  0  0  0  0  0  0  0  0  0
   -1.4289   -2.4750    0.0000 C   0  0  0  0  0  0  0  0  0  0  0  0
   -0.7145   -2.8875    0.0000 C   0  0  0  0  0  0  0  0  0  0  0  0
    2.1434   -3.7125    0.0000 C   0  0  0  0  0  0  0  0  0  0  0  0
    2.1434   -2.8875    0.0000 C   0  0  0  0  0  0  0  0  0  0  0  0
    2.8579   -2.4750    0.0000 C   0  0  0  0  0  0  0  0  0  0  0  0
    3.5724   -2.8875    0.0000 C   0  0  0  0  0  0  0  0  0  0  0  0
    3.5724   -3.7125    0.0000 C   0  0  0  0  0  0  0  0  0  0  0  0
    2.8579   -4.1250    0.0000 C   0  0  0  0  0  0  0  0  0  0  0  0
    2.8579   -4.9500    0.0000 O   0  0  0  0  0  0  0  0  0  0  0  0
    3.5724   -5.3625    0.0000 C   0  0  0  0  0  0  0  0  0  0  0  0
    4.2868   -4.9500    0.0000 C   0  0  0  0  0  0  0  0  0  0  0  0
    5.0013   -5.3625    0.0000 C   0  0  0  0  0  0  0  0  0  0  0  0
    5.7158   -4.9500    0.0000 C   0  0  0  0  0  0  0  0  0  0  0  0
    6.4302   -5.3625    0.0000 C   0  0  0  0  0  0  0  0  0  0  0  0
    7.1447   -4.9500    0.0000 C   0  0  0  0  0  0  0  0  0  0  0  0
    7.8592   -5.3625    0.0000 N   0  0  0  0  0  0  0  0  0  0  0  0
    8.5737   -4.9500    0.0000 C   0  0  0  0  0  0  0  0  0  0  0  0
    9.2881   -5.3625    0.0000 C   0  0  0  0  0  0  0  0  0  0  0  0
    9.2881   -6.1875    0.0000 C   0  0  0  0  0  0  0  0  0  0  0  0
    8.5737   -6.6000    0.0000 C   0  0  0  0  0  0  0  0  0  0  0  0
    7.8592   -6.1875    0.0000 C   0  0  0  0  0  0  0  0  0  0  0  0
  1  2  2  0  0  0  0
  2  3  1  0  0  0  0
  2 11  1  0  0  0  0
  3  4  1  0  0  0  0
  4  5  1  0  0  0  0
  5  6  2  0  0  0  0
  5 10  1  0  0  0  0
  6  7  1  0  0  0  0
  7  8  2  0  0  0  0
  8  9  1  0  0  0  0
  9 10  2  0  0  0  0
 11 12  2  0  0  0  0
 11 16  1  0  0  0  0
 12 13  1  0  0  0  0
 13 14  2  0  0  0  0
 14 15  1  0  0  0  0
 15 16  2  0  0  0  0
 16 17  1  0  0  0  0
 17 18  1  0  0  0  0
 18 19  1  0  0  0  0
 19 20  1  0  0  0  0
 20 21  1  0  0  0  0
 21 22  1  0  0  0  0
 22 23  1  0  0  0  0
 23 24  1  0  0  0  0
 24 25  1  0  0  0  0
 24 29  1  0  0  0  0
 25 26  1  0  0  0  0
 26 27  1  0  0  0  0
 27 28  1  0  0  0  0
 28 29  1  0  0  0  0
M  END
$$$$

 OpenBabel12191814062D

 28 30  0  0  0  0  0  0  0  0999 V2000
    0.7145   -5.3625    0.0000 O   0  0  0  0  0  0  0  0  0  0  0  0
    0.0000   -4.9500    0.0000 C   0  0  0  0  0  0  0  0  0  0  0  0
   -0.7145   -5.3625    0.0000 C   0  0  0  0  0  0  0  0  0  0  0  0
   -0.7145   -6.1875    0.0000 C   0  0  0  0  0  0  0  0  0  0  0  0
   -1.4289   -6.6000    0.0000 C   0  0  0  0  0  0  0  0  0  0  0  0
   -1.4289   -7.4250    0.0000 C   0  0  0  0  0  0  0  0  0  0  0  0
   -2.1434   -7.8375    0.0000 C   0  0  0  0  0  0  0  0  0  0  0  0
   -2.8579   -7.4250    0.0000 C   0  0  0  0  0  0  0  0  0  0  0  0
   -2.8579   -6.6000    0.0000 C   0  0  0  0  0  0  0  0  0  0  0  0
   -2.1434   -6.1875    0.0000 C   0  0  0  0  0  0  0  0  0  0  0  0
    0.0000   -4.1250    0.0000 C   0  0  0  0  0  0  0  0  0  0  0  0
   -0.7145   -3.7125    0.0000 C   0  0  0  0  0  0  0  0  0  0  0  0
   -0.7145   -2.8875    0.0000 C   0  0  0  0  0  0  0  0  0  0  0  0
    0.0000   -2.4750    0.0000 C   0  0  0  0  0  0  0  0  0  0  0  0
    0.7145   -2.8875    0.0000 C   0  0  0  0  0  0  0  0  0  0  0  0
    0.7145   -3.7125    0.0000 C   0  0  0  0  0  0  0  0  0  0  0  0
    1.4289   -4.1250    0.0000 O   0  0  0  0  0  0  0  0  0  0  0  0
    2.1434   -3.7125    0.0000 C   0  0  0  0  0  0  0  0  0  0  0  0
    2.8579   -4.1250    0.0000 C   0  0  0  0  0  0  0  0  0  0  0  0
    3.5724   -3.7125    0.0000 C   0  0  0  0  0  0  0  0  0  0  0  0
    4.2868   -4.1250    0.0000 C   0  0  0  0  0  0  0  0  0  0  0  0
    5.0013   -3.7125    0.0000 C   0  0  0  0  0  0  0  0  0  0  0  0
    5.7158   -4.1250    0.0000 N   0  0  0  0  0  0  0  0  0  0  0  0
    6.4302   -3.7125    0.0000 C   0  0  0  0  0  0  0  0  0  0  0  0
    7.1447   -4.1250    0.0000 C   0  0  0  0  0  0  0  0  0  0  0  0
    7.1447   -4.9500    0.0000 C   0  0  0  0  0  0  0  0  0  0  0  0
    6.4302   -5.3625    0.0000 C   0  0  0  0  0  0  0  0  0  0  0  0
    5.7158   -4.9500    0.0000 C   0  0  0  0  0  0  0  0  0  0  0  0
  1  2  2  0  0  0  0
  2  3  1  0  0  0  0
  2 11  1  0  0  0  0
  3  4  1  0  0  0  0
  4  5  1  0  0  0  0
  5  6  2  0  0  0  0
  5 10  1  0  0  0  0
  6  7  1  0  0  0  0
  7  8  2  0  0  0  0
  8  9  1  0  0  0  0
  9 10  2  0  0  0  0
 11 12  2  0  0  0  0
 11 16  1  0  0  0  0
 12 13  1  0  0  0  0
 13 14  2  0  0  0  0
 14 15  1  0  0  0  0
 15 16  2  0  0  0  0
 16 17  1  0  0  0  0
 17 18  1  0  0  0  0
 18 19  1  0  0  0  0
 19 20  1  0  0  0  0
 20 21  1  0  0  0  0
 21 22  1  0  0  0  0
 22 23  1  0  0  0  0
 23 24  1  0  0  0  0
 23 28  1  0  0  0  0
 24 25  1  0  0  0  0
 25 26  1  0  0  0  0
 26 27  1  0  0  0  0
 27 28  1  0  0  0  0
M  END
$$$$

 OpenBabel12191814062D

 27 29  0  0  0  0  0  0  0  0999 V2000
    2.8579   -4.9500    0.0000 O   0  0  0  0  0  0  0  0  0  0  0  0
    2.1434   -5.3625    0.0000 C   0  0  0  0  0  0  0  0  0  0  0  0
    2.1434   -6.1875    0.0000 C   0  0  0  0  0  0  0  0  0  0  0  0
    2.8579   -6.6000    0.0000 C   0  0  0  0  0  0  0  0  0  0  0  0
    2.8579   -7.4250    0.0000 C   0  0  0  0  0  0  0  0  0  0  0  0
    3.5724   -7.8375    0.0000 C   0  0  0  0  0  0  0  0  0  0  0  0
    3.5724   -8.6625    0.0000 C   0  0  0  0  0  0  0  0  0  0  0  0
    2.8579   -9.0750    0.0000 C   0  0  0  0  0  0  0  0  0  0  0  0
    2.1434   -8.6625    0.0000 C   0  0  0  0  0  0  0  0  0  0  0  0
    2.1434   -7.8375    0.0000 C   0  0  0  0  0  0  0  0  0  0  0  0
    1.4289   -4.9500    0.0000 C   0  0  0  0  0  0  0  0  0  0  0  0
    0.7145   -5.3625    0.0000 C   0  0  0  0  0  0  0  0  0  0  0  0
    0.0000   -4.9500    0.0000 C   0  0  0  0  0  0  0  0  0  0  0  0
    0.0000   -4.1250    0.0000 C   0  0  0  0  0  0  0  0  0  0  0  0
    0.7145   -3.7125    0.0000 C   0  0  0  0  0  0  0  0  0  0  0  0
    1.4289   -4.1250    0.0000 C   0  0  0  0  0  0  0  0  0  0  0  0
    2.1434   -3.7125    0.0000 O   0  0  0  0  0  0  0  0  0  0  0  0
    2.8579   -4.1250    0.0000 C   0  0  0  0  0  0  0  0  0  0  0  0
    3.5724   -3.7125    0.0000 C   0  0  0  0  0  0  0  0  0  0  0  0
    4.2868   -4.1250    0.0000 C   0  0  0  0  0  0  0  0  0  0  0  0
    5.0013   -3.7125    0.0000 C   0  0  0  0  0  0  0  0  0  0  0  0
    5.7158   -4.1250    0.0000 N   0  0  0  0  0  0  0  0  0  0  0  0
    6.4302   -3.7125    0.0000 C   0  0  0  0  0  0  0  0  0  0  0  0
    7.1447   -4.1250    0.0000 C   0  0  0  0  0  0  0  0  0  0  0  0
    7.1447   -4.9500    0.0000 C   0  0  0  0  0  0  0  0  0  0  0  0
    6.4302   -5.3625    0.0000 C   0  0  0  0  0  0  0  0  0  0  0  0
    5.7158   -4.9500    0.0000 C   0  0  0  0  0  0  0  0  0  0  0  0
  1  2  2  0  0  0  0
  2  3  1  0  0  0  0
  2 11  1  0  0  0  0
  3  4  1  0  0  0  0
  4  5  1  0  0  0  0
  5  6  2  0  0  0  0
  5 10  1  0  0  0  0
  6  7  1  0  0  0  0
  7  8  2  0  0  0  0
  8  9  1  0  0  0  0
  9 10  2  0  0  0  0
 11 12  2  0  0  0  0
 11 16  1  0  0  0  0
 12 13  1  0  0  0  0
 13 14  2  0  0  0  0
 14 15  1  0  0  0  0
 15 16  2  0  0  0  0
 16 17  1  0  0  0  0
 17 18  1  0  0  0  0
 18 19  1  0  0  0  0
 19 20  1  0  0  0  0
 20 21  1  0  0  0  0
 21 22  1  0  0  0  0
 22 23  1  0  0  0  0
 22 27  1  0  0  0  0
 23 24  1  0  0  0  0
 24 25  1  0  0  0  0
 25 26  1  0  0  0  0
 26 27  1  0  0  0  0
M  END
$$$$

 OpenBabel12191814062D

 27 29  0  0  0  0  0  0  0  0999 V2000
    2.8579   -4.9500    0.0000 O   0  0  0  0  0  0  0  0  0  0  0  0
    2.1434   -5.3625    0.0000 C   0  0  0  0  0  0  0  0  0  0  0  0
    2.1434   -6.1875    0.0000 C   0  0  0  0  0  0  0  0  0  0  0  0
    2.8579   -6.6000    0.0000 C   0  0  0  0  0  0  0  0  0  0  0  0
    2.8579   -7.4250    0.0000 C   0  0  0  0  0  0  0  0  0  0  0  0
    3.5724   -7.8375    0.0000 C   0  0  0  0  0  0  0  0  0  0  0  0
    3.5724   -8.6625    0.0000 C   0  0  0  0  0  0  0  0  0  0  0  0
    2.8579   -9.0750    0.0000 C   0  0  0  0  0  0  0  0  0  0  0  0
    2.1434   -8.6625    0.0000 C   0  0  0  0  0  0  0  0  0  0  0  0
    2.1434   -7.8375    0.0000 C   0  0  0  0  0  0  0  0  0  0  0  0
    1.4289   -4.9500    0.0000 C   0  0  0  0  0  0  0  0  0  0  0  0
    0.7145   -5.3625    0.0000 C   0  0  0  0  0  0  0  0  0  0  0  0
    0.0000   -4.9500    0.0000 C   0  0  0  0  0  0  0  0  0  0  0  0
    0.0000   -4.1250    0.0000 C   0  0  0  0  0  0  0  0  0  0  0  0
    0.7145   -3.7125    0.0000 C   0  0  0  0  0  0  0  0  0  0  0  0
    1.4289   -4.1250    0.0000 C   0  0  0  0  0  0  0  0  0  0  0  0
    2.1434   -3.7125    0.0000 O   0  0  0  0  0  0  0  0  0  0  0  0
    2.8579   -4.1250    0.0000 C   0  0  0  0  0  0  0  0  0  0  0  0
    3.5724   -3.7125    0.0000 C   0  0  0  0  0  0  0  0  0  0  0  0
    4.2868   -4.1250    0.0000 C   0  0  0  0  0  0  0  0  0  0  0  0
    5.0013   -3.7125    0.0000 C   0  0  0  0  0  0  0  0  0  0  0  0
    5.7158   -4.1250    0.0000 N   0  0  0  0  0  0  0  0  0  0  0  0
    6.4302   -3.7125    0.0000 C   0  0  0  0  0  0  0  0  0  0  0  0
    7.1447   -4.1250    0.0000 C   0  0  0  0  0  0  0  0  0  0  0  0
    7.1447   -4.9500    0.0000 O   0  0  0  0  0  0  0  0  0  0  0  0
    6.4302   -5.3625    0.0000 C   0  0  0  0  0  0  0  0  0  0  0  0
    5.7158   -4.9500    0.0000 C   0  0  0  0  0  0  0  0  0  0  0  0
  1  2  2  0  0  0  0
  2  3  1  0  0  0  0
  2 11  1  0  0  0  0
  3  4  1  0  0  0  0
  4  5  1  0  0  0  0
  5  6  2  0  0  0  0
  5 10  1  0  0  0  0
  6  7  1  0  0  0  0
  7  8  2  0  0  0  0
  8  9  1  0  0  0  0
  9 10  2  0  0  0  0
 11 12  2  0  0  0  0
 11 16  1  0  0  0  0
 12 13  1  0  0  0  0
 13 14  2  0  0  0  0
 14 15  1  0  0  0  0
 15 16  2  0  0  0  0
 16 17  1  0  0  0  0
 17 18  1  0  0  0  0
 18 19  1  0  0  0  0
 19 20  1  0  0  0  0
 20 21  1  0  0  0  0
 21 22  1  0  0  0  0
 22 23  1  0  0  0  0
 22 27  1  0  0  0  0
 23 24  1  0  0  0  0
 24 25  1  0  0  0  0
 25 26  1  0  0  0  0
 26 27  1  0  0  0  0
M  END
$$$$

 OpenBabel12191814062D

 26 28  0  0  0  0  0  0  0  0999 V2000
    0.0000   -4.1250    0.0000 O   0  0  0  0  0  0  0  0  0  0  0  0
   -0.7145   -3.7125    0.0000 C   0  0  0  0  0  0  0  0  0  0  0  0
   -1.4289   -4.1250    0.0000 C   0  0  0  0  0  0  0  0  0  0  0  0
   -1.4289   -4.9500    0.0000 C   0  0  0  0  0  0  0  0  0  0  0  0
   -2.1434   -5.3625    0.0000 C   0  0  0  0  0  0  0  0  0  0  0  0
   -2.1434   -6.1875    0.0000 C   0  0  0  0  0  0  0  0  0  0  0  0
   -2.8579   -6.6000    0.0000 C   0  0  0  0  0  0  0  0  0  0  0  0
   -3.5724   -6.1875    0.0000 C   0  0  0  0  0  0  0  0  0  0  0  0
   -3.5724   -5.3625    0.0000 C   0  0  0  0  0  0  0  0  0  0  0  0
   -2.8579   -4.9500    0.0000 C   0  0  0  0  0  0  0  0  0  0  0  0
   -0.7145   -2.8875    0.0000 C   0  0  0  0  0  0  0  0  0  0  0  0
   -1.4289   -2.4750    0.0000 C   0  0  0  0  0  0  0  0  0  0  0  0
   -1.4289   -1.6500    0.0000 C   0  0  0  0  0  0  0  0  0  0  0  0
   -0.7145   -1.2375    0.0000 C   0  0  0  0  0  0  0  0  0  0  0  0
    0.0000   -1.6500    0.0000 C   0  0  0  0  0  0  0  0  0  0  0  0
    0.0000   -2.4750    0.0000 C   0  0  0  0  0  0  0  0  0  0  0  0
    0.7145   -2.8875    0.0000 O   0  0  0  0  0  0  0  0  0  0  0  0
    1.4289   -2.4750    0.0000 C   0  0  0  0  0  0  0  0  0  0  0  0
    2.1434   -2.8875    0.0000 C   0  0  0  0  0  0  0  0  0  0  0  0
    2.8579   -2.4750    0.0000 C   0  0  0  0  0  0  0  0  0  0  0  0
    3.5724   -2.8875    0.0000 N   0  0  0  0  0  0  0  0  0  0  0  0
    4.2868   -2.4750    0.0000 C   0  0  0  0  0  0  0  0  0  0  0  0
    5.0013   -2.8875    0.0000 C   0  0  0  0  0  0  0  0  0  0  0  0
    5.0013   -3.7125    0.0000 C   0  0  0  0  0  0  0  0  0  0  0  0
    4.2868   -4.1250    0.0000 C   0  0  0  0  0  0  0  0  0  0  0  0
    3.5724   -3.7125    0.0000 C   0  0  0  0  0  0  0  0  0  0  0  0
  1  2  2  0  0  0  0
  2  3  1  0  0  0  0
  2 11  1  0  0  0  0
  3  4  1  0  0  0  0
  4  5  1  0  0  0  0
  5  6  2  0  0  0  0
  5 10  1  0  0  0  0
  6  7  1  0  0  0  0
  7  8  2  0  0  0  0
  8  9  1  0  0  0  0
  9 10  2  0  0  0  0
 11 12  2  0  0  0  0
 11 16  1  0  0  0  0
 12 13  1  0  0  0  0
 13 14  2  0  0  0  0
 14 15  1  0  0  0  0
 15 16  2  0  0  0  0
 16 17  1  0  0  0  0
 17 18  1  0  0  0  0
 18 19  1  0  0  0  0
 19 20  1  0  0  0  0
 20 21  1  0  0  0  0
 21 22  1  0  0  0  0
 21 26  1  0  0  0  0
 22 23  1  0  0  0  0
 23 24  1  0  0  0  0
 24 25  1  0  0  0  0
 25 26  1  0  0  0  0
M  END
$$$$

 OpenBabel12191814062D

 25 27  0  0  0  0  0  0  0  0999 V2000
    0.0000   -2.4750    0.0000 O   0  0  0  0  0  0  0  0  0  0  0  0
   -0.7145   -2.8875    0.0000 C   0  0  0  0  0  0  0  0  0  0  0  0
   -0.7145   -3.7125    0.0000 C   0  0  0  0  0  0  0  0  0  0  0  0
    0.0000   -4.1250    0.0000 C   0  0  0  0  0  0  0  0  0  0  0  0
    0.0000   -4.9500    0.0000 C   0  0  0  0  0  0  0  0  0  0  0  0
    0.7145   -5.3625    0.0000 C   0  0  0  0  0  0  0  0  0  0  0  0
    0.7145   -6.1875    0.0000 C   0  0  0  0  0  0  0  0  0  0  0  0
   -0.0000   -6.6000    0.0000 C   0  0  0  0  0  0  0  0  0  0  0  0
   -0.7145   -6.1875    0.0000 C   0  0  0  0  0  0  0  0  0  0  0  0
   -0.7145   -5.3625    0.0000 C   0  0  0  0  0  0  0  0  0  0  0  0
   -1.4289   -2.4750    0.0000 C   0  0  0  0  0  0  0  0  0  0  0  0
   -2.1434   -2.8875    0.0000 C   0  0  0  0  0  0  0  0  0  0  0  0
   -2.8579   -2.4750    0.0000 C   0  0  0  0  0  0  0  0  0  0  0  0
   -2.8579   -1.6500    0.0000 C   0  0  0  0  0  0  0  0  0  0  0  0
   -2.1434   -1.2375    0.0000 C   0  0  0  0  0  0  0  0  0  0  0  0
   -1.4289   -1.6500    0.0000 C   0  0  0  0  0  0  0  0  0  0  0  0
   -0.7145   -1.2375    0.0000 O   0  0  0  0  0  0  0  0  0  0  0  0
    0.0000   -1.6500    0.0000 C   0  0  0  0  0  0  0  0  0  0  0  0
    0.7145   -1.2375    0.0000 C   0  0  0  0  0  0  0  0  0  0  0  0
    0.7145   -0.4125    0.0000 N   0  0  0  0  0  0  0  0  0  0  0  0
    0.0000    0.0000    0.0000 C   0  0  0  0  0  0  0  0  0  0  0  0
    0.0000    0.8250    0.0000 C   0  0  0  0  0  0  0  0  0  0  0  0
    0.7145    1.2375    0.0000 C   0  0  0  0  0  0  0  0  0  0  0  0
    1.4289    0.8250    0.0000 C   0  0  0  0  0  0  0  0  0  0  0  0
    1.4289    0.0000    0.0000 C   0  0  0  0  0  0  0  0  0  0  0  0
  1  2  2  0  0  0  0
  2  3  1  0  0  0  0
  2 11  1  0  0  0  0
  3  4  1  0  0  0  0
  4  5  1  0  0  0  0
  5  6  2  0  0  0  0
  5 10  1  0  0  0  0
  6  7  1  0  0  0  0
  7  8  2  0  0  0  0
  8  9  1  0  0  0  0
  9 10  2  0  0  0  0
 11 12  2  0  0  0  0
 11 16  1  0  0  0  0
 12 13  1  0  0  0  0
 13 14  2  0  0  0  0
 14 15  1  0  0  0  0
 15 16  2  0  0  0  0
 16 17  1  0  0  0  0
 17 18  1  0  0  0  0
 18 19  1  0  0  0  0
 19 20  1  0  0  0  0
 20 21  1  0  0  0  0
 20 25  1  0  0  0  0
 21 22  1  0  0  0  0
 22 23  1  0  0  0  0
 23 24  1  0  0  0  0
 24 25  1  0  0  0  0
M  END
$$$$

 OpenBabel12191814062D

 35 39  0  0  0  0  0  0  0  0999 V2000
   -0.9851   -3.2777    0.0000 O   0  0  0  0  0  0  0  0  0  0  0  0
   -0.1781   -3.1062    0.0000 C   0  0  0  0  0  0  0  0  0  0  0  0
    0.0768   -2.3215    0.0000 C   0  0  0  0  0  0  0  0  0  0  0  0
    0.8838   -2.1500    0.0000 C   0  0  0  0  0  0  0  0  0  0  0  0
    1.1387   -1.3654    0.0000 N   0  0  0  0  0  0  0  0  0  0  0  0
    0.6538   -0.6979    0.0000 C   0  0  0  0  0  0  0  0  0  0  0  0
   -0.1712   -0.6979    0.0000 C   0  0  0  0  0  0  0  0  0  0  0  0
   -0.5837    0.0165    0.0000 N   0  0  0  0  0  0  0  0  0  0  0  0
   -1.4087    0.0165    0.0000 C   0  0  0  0  0  0  0  0  0  0  0  0
   -1.8212    0.7310    0.0000 C   0  0  0  0  0  0  0  0  0  0  0  0
   -1.4087    1.4455    0.0000 N   0  0  0  0  0  0  0  0  0  0  0  0
   -1.8212    2.1599    0.0000 C   0  0  0  0  0  0  0  0  0  0  0  0
   -1.4087    2.8744    0.0000 C   0  0  0  0  0  0  0  0  0  0  0  0
   -1.8212    3.5889    0.0000 C   0  0  0  0  0  0  0  0  0  0  0  0
   -1.4087    4.3034    0.0000 C   0  0  0  0  0  0  0  0  0  0  0  0
   -1.8212    5.0178    0.0000 C   0  0  0  0  0  0  0  0  0  0  0  0
   -1.4087    5.7323    0.0000 C   0  0  0  0  0  0  0  0  0  0  0  0
   -0.5837    5.7323    0.0000 C   0  0  0  0  0  0  0  0  0  0  0  0
   -0.1712    5.0178    0.0000 C   0  0  0  0  0  0  0  0  0  0  0  0
   -0.5837    4.3034    0.0000 C   0  0  0  0  0  0  0  0  0  0  0  0
   -0.5837    1.4455    0.0000 C   0  0  0  0  0  0  0  0  0  0  0  0
   -0.1712    0.7310    0.0000 C   0  0  0  0  0  0  0  0  0  0  0  0
    1.1387   -0.0305    0.0000 N   0  0  0  0  0  0  0  0  0  0  0  0
    1.9233   -0.2854    0.0000 C   0  0  0  0  0  0  0  0  0  0  0  0
    2.6378    0.1271    0.0000 C   0  0  0  0  0  0  0  0  0  0  0  0
    3.3523   -0.2854    0.0000 C   0  0  0  0  0  0  0  0  0  0  0  0
    3.3523   -1.1104    0.0000 C   0  0  0  0  0  0  0  0  0  0  0  0
    2.6378   -1.5229    0.0000 C   0  0  0  0  0  0  0  0  0  0  0  0
    1.9233   -1.1104    0.0000 C   0  0  0  0  0  0  0  0  0  0  0  0
    0.3739   -3.7192    0.0000 C   0  0  0  0  0  0  0  0  0  0  0  0
    1.1809   -3.5477    0.0000 C   0  0  0  0  0  0  0  0  0  0  0  0
    1.7329   -4.1608    0.0000 C   0  0  0  0  0  0  0  0  0  0  0  0
    1.4780   -4.9454    0.0000 C   0  0  0  0  0  0  0  0  0  0  0  0
    0.6710   -5.1170    0.0000 C   0  0  0  0  0  0  0  0  0  0  0  0
    0.1190   -4.5039    0.0000 C   0  0  0  0  0  0  0  0  0  0  0  0
  1  2  2  0  0  0  0
  2  3  1  0  0  0  0
  2 30  1  0  0  0  0
  3  4  1  0  0  0  0
  4  5  1  0  0  0  0
  5  6  1  0  0  0  0
  5 29  1  0  0  0  0
  6  7  1  0  0  0  0
  6 23  2  0  0  0  0
  7  8  1  0  0  0  0
  8  9  1  0  0  0  0
  8 22  1  0  0  0  0
  9 10  1  0  0  0  0
 10 11  1  0  0  0  0
 11 12  1  0  0  0  0
 11 21  1  0  0  0  0
 12 13  1  0  0  0  0
 13 14  2  0  0  0  0
 14 15  1  0  0  0  0
 15 16  2  0  0  0  0
 15 20  1  0  0  0  0
 16 17  1  0  0  0  0
 17 18  2  0  0  0  0
 18 19  1  0  0  0  0
 19 20  2  0  0  0  0
 21 22  1  0  0  0  0
 23 24  1  0  0  0  0
 24 25  2  0  0  0  0
 24 29  1  0  0  0  0
 25 26  1  0  0  0  0
 26 27  2  0  0  0  0
 27 28  1  0  0  0  0
 28 29  2  0  0  0  0
 30 31  2  0  0  0  0
 30 35  1  0  0  0  0
 31 32  1  0  0  0  0
 32 33  2  0  0  0  0
 33 34  1  0  0  0  0
 34 35  2  0  0  0  0
M  END
$$$$

 OpenBabel12191814062D

 23 26  0  0  0  0  0  0  0  0999 V2000
    2.8579    2.4750    0.0000 O   0  0  0  0  0  0  0  0  0  0  0  0
    2.1434    2.0625    0.0000 C   0  0  0  0  0  0  0  0  0  0  0  0
    1.4289    2.4750    0.0000 C   0  0  0  0  0  0  0  0  0  0  0  0
    1.4289    3.3000    0.0000 N   0  0  0  0  0  0  0  0  0  0  0  0
    0.7145    3.7125    0.0000 C   0  0  0  0  0  0  0  0  0  0  0  0
    0.7145    4.5375    0.0000 C   0  0  0  0  0  0  0  0  0  0  0  0
    1.4289    4.9500    0.0000 C   0  0  0  0  0  0  0  0  0  0  0  0
    2.1434    4.5375    0.0000 C   0  0  0  0  0  0  0  0  0  0  0  0
    2.1434    3.7125    0.0000 C   0  0  0  0  0  0  0  0  0  0  0  0
    2.1434    1.2375    0.0000 N   0  0  0  0  0  0  0  0  0  0  0  0
    2.8579    0.8250    0.0000 C   0  0  0  0  0  0  0  0  0  0  0  0
    3.5724    1.2375    0.0000 C   0  0  0  0  0  0  0  0  0  0  0  0
    4.2868    0.8250    0.0000 C   0  0  0  0  0  0  0  0  0  0  0  0
    4.2868   -0.0000    0.0000 C   0  0  0  0  0  0  0  0  0  0  0  0
    3.5724   -0.4125    0.0000 C   0  0  0  0  0  0  0  0  0  0  0  0
    2.8579    0.0000    0.0000 C   0  0  0  0  0  0  0  0  0  0  0  0
    2.1434   -0.4125    0.0000 O   0  0  0  0  0  0  0  0  0  0  0  0
    1.4289    0.0000    0.0000 C   0  0  0  0  0  0  0  0  0  0  0  0
    0.7145   -0.4125    0.0000 C   0  0  0  0  0  0  0  0  0  0  0  0
    0.0000    0.0000    0.0000 C   0  0  0  0  0  0  0  0  0  0  0  0
    0.0000    0.8250    0.0000 C   0  0  0  0  0  0  0  0  0  0  0  0
    0.7145    1.2375    0.0000 C   0  0  0  0  0  0  0  0  0  0  0  0
    1.4289    0.8250    0.0000 C   0  0  0  0  0  0  0  0  0  0  0  0
  1  2  2  0  0  0  0
  2  3  1  0  0  0  0
  2 10  1  0  0  0  0
  3  4  1  0  0  0  0
  4  5  1  0  0  0  0
  4  9  1  0  0  0  0
  5  6  1  0  0  0  0
  6  7  1  0  0  0  0
  7  8  1  0  0  0  0
  8  9  1  0  0  0  0
 10 11  1  0  0  0  0
 10 23  1  0  0  0  0
 11 12  2  0  0  0  0
 11 16  1  0  0  0  0
 12 13  1  0  0  0  0
 13 14  2  0  0  0  0
 14 15  1  0  0  0  0
 15 16  2  0  0  0  0
 16 17  1  0  0  0  0
 17 18  1  0  0  0  0
 18 19  2  0  0  0  0
 18 23  1  0  0  0  0
 19 20  1  0  0  0  0
 20 21  2  0  0  0  0
 21 22  1  0  0  0  0
 22 23  2  0  0  0  0
M  END
$$$$

 OpenBabel12191814062D

 30 34  0  0  0  0  0  0  0  0999 V2000
    0.7145    2.0625    0.0000 O   0  0  0  0  0  0  0  0  0  0  0  0
    1.4289    2.4750    0.0000 C   0  0  0  0  0  0  0  0  0  0  0  0
    1.4289    3.3000    0.0000 C   0  0  0  0  0  0  0  0  0  0  0  0
    0.7145    3.7125    0.0000 N   0  0  0  0  0  0  0  0  0  0  0  0
   -0.0000    3.3000    0.0000 C   0  0  0  0  0  0  0  0  0  0  0  0
   -0.7145    3.7125    0.0000 C   0  0  0  0  0  0  0  0  0  0  0  0
   -0.7145    4.5375    0.0000 C   0  0  0  0  0  0  0  0  0  0  0  0
   -0.0000    4.9500    0.0000 C   0  0  0  0  0  0  0  0  0  0  0  0
    0.7145    4.5375    0.0000 C   0  0  0  0  0  0  0  0  0  0  0  0
    2.1434    2.0625    0.0000 N   0  0  0  0  0  0  0  0  0  0  0  0
    2.1434    1.2375    0.0000 C   0  0  0  0  0  0  0  0  0  0  0  0
    2.8579    0.8250    0.0000 C   0  0  0  0  0  0  0  0  0  0  0  0
    3.6425    1.0799    0.0000 C   0  0  0  0  0  0  0  0  0  0  0  0
    4.1274    0.4125    0.0000 C   0  0  0  0  0  0  0  0  0  0  0  0
    3.6425   -0.2549    0.0000 N   0  0  0  0  0  0  0  0  0  0  0  0
    3.8974   -1.0396    0.0000 C   0  0  0  0  0  0  0  0  0  0  0  0
    3.3454   -1.6527    0.0000 C   0  0  0  0  0  0  0  0  0  0  0  0
    3.6004   -2.4373    0.0000 C   0  0  0  0  0  0  0  0  0  0  0  0
    3.0483   -3.0504    0.0000 C   0  0  0  0  0  0  0  0  0  0  0  0
    2.2413   -2.8788    0.0000 C   0  0  0  0  0  0  0  0  0  0  0  0
    1.9864   -2.0942    0.0000 C   0  0  0  0  0  0  0  0  0  0  0  0
    2.5384   -1.4811    0.0000 C   0  0  0  0  0  0  0  0  0  0  0  0
    2.8579    0.0000    0.0000 C   0  0  0  0  0  0  0  0  0  0  0  0
    2.1434   -0.4125    0.0000 N   0  0  0  0  0  0  0  0  0  0  0  0
    1.4289    0.0000    0.0000 C   0  0  0  0  0  0  0  0  0  0  0  0
    0.7145   -0.4125    0.0000 C   0  0  0  0  0  0  0  0  0  0  0  0
    0.0000    0.0000    0.0000 C   0  0  0  0  0  0  0  0  0  0  0  0
    0.0000    0.8250    0.0000 C   0  0  0  0  0  0  0  0  0  0  0  0
    0.7145    1.2375    0.0000 C   0  0  0  0  0  0  0  0  0  0  0  0
    1.4289    0.8250    0.0000 C   0  0  0  0  0  0  0  0  0  0  0  0
  1  2  2  0  0  0  0
  2  3  1  0  0  0  0
  2 10  1  0  0  0  0
  3  4  1  0  0  0  0
  4  5  1  0  0  0  0
  4  9  1  0  0  0  0
  5  6  1  0  0  0  0
  6  7  1  0  0  0  0
  7  8  1  0  0  0  0
  8  9  1  0  0  0  0
 10 11  1  0  0  0  0
 11 12  2  0  0  0  0
 11 30  1  0  0  0  0
 12 13  1  0  0  0  0
 12 23  1  0  0  0  0
 13 14  1  0  0  0  0
 14 15  1  0  0  0  0
 15 16  1  0  0  0  0
 15 23  1  0  0  0  0
 16 17  1  0  0  0  0
 17 18  2  0  0  0  0
 17 22  1  0  0  0  0
 18 19  1  0  0  0  0
 19 20  2  0  0  0  0
 20 21  1  0  0  0  0
 21 22  2  0  0  0  0
 23 24  2  0  0  0  0
 24 25  1  0  0  0  0
 25 26  2  0  0  0  0
 25 30  1  0  0  0  0
 26 27  1  0  0  0  0
 27 28  2  0  0  0  0
 28 29  1  0  0  0  0
 29 30  2  0  0  0  0
M  END
$$$$

 OpenBabel12191814062D

 30 34  0  0  0  0  0  0  0  0999 V2000
    5.1607   -4.7010    0.0000 O   0  0  0  0  0  0  0  0  0  0  0  0
    4.6086   -5.3141    0.0000 C   0  0  0  0  0  0  0  0  0  0  0  0
    3.8017   -5.1426    0.0000 C   0  0  0  0  0  0  0  0  0  0  0  0
    3.5467   -4.3580    0.0000 N   0  0  0  0  0  0  0  0  0  0  0  0
    2.7397   -4.1864    0.0000 C   0  0  0  0  0  0  0  0  0  0  0  0
    2.4848   -3.4018    0.0000 C   0  0  0  0  0  0  0  0  0  0  0  0
    3.0368   -2.7887    0.0000 N   0  0  0  0  0  0  0  0  0  0  0  0
    3.8438   -2.9602    0.0000 C   0  0  0  0  0  0  0  0  0  0  0  0
    4.0987   -3.7449    0.0000 C   0  0  0  0  0  0  0  0  0  0  0  0
    2.7819   -2.0041    0.0000 C   0  0  0  0  0  0  0  0  0  0  0  0
    1.9749   -1.8326    0.0000 N   0  0  0  0  0  0  0  0  0  0  0  0
    1.7200   -1.0479    0.0000 C   0  0  0  0  0  0  0  0  0  0  0  0
    2.2720   -0.4349    0.0000 N   0  0  0  0  0  0  0  0  0  0  0  0
    3.0790   -0.6064    0.0000 C   0  0  0  0  0  0  0  0  0  0  0  0
    3.7464   -0.1215    0.0000 C   0  0  0  0  0  0  0  0  0  0  0  0
    3.7464    0.7035    0.0000 C   0  0  0  0  0  0  0  0  0  0  0  0
    3.7464    1.5285    0.0000 N   0  0  0  0  0  0  0  0  0  0  0  0
    4.4139   -0.6064    0.0000 C   0  0  0  0  0  0  0  0  0  0  0  0
    5.2208   -0.4349    0.0000 C   0  0  0  0  0  0  0  0  0  0  0  0
    5.7729   -1.0479    0.0000 C   0  0  0  0  0  0  0  0  0  0  0  0
    5.5179   -1.8326    0.0000 C   0  0  0  0  0  0  0  0  0  0  0  0
    4.7110   -2.0041    0.0000 C   0  0  0  0  0  0  0  0  0  0  0  0
    4.1589   -1.3910    0.0000 N   0  0  0  0  0  0  0  0  0  0  0  0
    3.3339   -1.3910    0.0000 C   0  0  0  0  0  0  0  0  0  0  0  0
    4.8636   -6.0987    0.0000 C   0  0  0  0  0  0  0  0  0  0  0  0
    5.6705   -6.2703    0.0000 C   0  0  0  0  0  0  0  0  0  0  0  0
    5.9255   -7.0549    0.0000 C   0  0  0  0  0  0  0  0  0  0  0  0
    5.3734   -7.6680    0.0000 C   0  0  0  0  0  0  0  0  0  0  0  0
    4.5665   -7.4964    0.0000 C   0  0  0  0  0  0  0  0  0  0  0  0
    4.3115   -6.7118    0.0000 C   0  0  0  0  0  0  0  0  0  0  0  0
  1  2  2  0  0  0  0
  2  3  1  0  0  0  0
  2 25  1  0  0  0  0
  3  4  1  0  0  0  0
  4  5  1  0  0  0  0
  4  9  1  0  0  0  0
  5  6  1  0  0  0  0
  6  7  1  0  0  0  0
  7  8  1  0  0  0  0
  7 10  1  0  0  0  0
  8  9  1  0  0  0  0
 10 11  2  0  0  0  0
 10 24  1  0  0  0  0
 11 12  1  0  0  0  0
 12 13  2  0  0  0  0
 13 14  1  0  0  0  0
 14 15  1  0  0  0  0
 14 24  2  0  0  0  0
 15 16  1  0  0  0  0
 15 18  2  0  0  0  0
 16 17  3  0  0  0  0
 18 19  1  0  0  0  0
 18 23  1  0  0  0  0
 19 20  1  0  0  0  0
 20 21  1  0  0  0  0
 21 22  1  0  0  0  0
 22 23  1  0  0  0  0
 23 24  1  0  0  0  0
 25 26  2  0  0  0  0
 25 30  1  0  0  0  0
 26 27  1  0  0  0  0
 27 28  2  0  0  0  0
 28 29  1  0  0  0  0
 29 30  2  0  0  0  0
M  END
$$$$

 OpenBabel12191814062D

 40 43  0  0  0  0  0  0  0  0999 V2000
   -1.5077   -2.9427    0.0000 O   0  0  0  0  0  0  0  0  0  0  0  0
   -1.2376   -2.1632    0.0000 C   0  0  0  0  0  0  0  0  0  0  0  0
   -1.7777   -1.5395    0.0000 N   0  0  0  0  0  0  0  0  0  0  0  0
   -2.5878   -1.6954    0.0000 C   0  0  3  0  0  0  0  0  0  0  0  0
   -2.8579   -2.4750    0.0000 C   0  0  0  0  0  0  0  0  0  0  0  0
   -2.3178   -3.0986    0.0000 C   0  0  0  0  0  0  0  0  0  0  0  0
   -2.5878   -3.8782    0.0000 C   0  0  0  0  0  0  0  0  0  0  0  0
   -2.0477   -4.5018    0.0000 C   0  0  0  0  0  0  0  0  0  0  0  0
   -2.3178   -5.2814    0.0000 C   0  0  0  0  0  0  0  0  0  0  0  0
   -3.1279   -5.4373    0.0000 C   0  0  0  0  0  0  0  0  0  0  0  0
   -3.6680   -4.8137    0.0000 C   0  0  0  0  0  0  0  0  0  0  0  0
   -3.3980   -4.0341    0.0000 C   0  0  0  0  0  0  0  0  0  0  0  0
   -3.1279   -1.0718    0.0000 C   0  0  0  0  0  0  0  0  0  0  0  0
   -3.9381   -1.2277    0.0000 C   0  0  0  0  0  0  0  0  0  0  0  0
   -4.4782   -0.6041    0.0000 S   0  0  0  0  0  0  0  0  0  0  0  0
   -5.1018   -1.1442    0.0000 O   0  0  0  0  0  0  0  0  0  0  0  0
   -3.8545   -0.0640    0.0000 O   0  0  0  0  0  0  0  0  0  0  0  0
   -5.0182    0.0196    0.0000 C   0  0  0  0  0  0  0  0  0  0  0  0
   -5.8284   -0.1363    0.0000 C   0  0  0  0  0  0  0  0  0  0  0  0
   -6.3685    0.4873    0.0000 C   0  0  0  0  0  0  0  0  0  0  0  0
   -6.0984    1.2668    0.0000 C   0  0  0  0  0  0  0  0  0  0  0  0
   -5.2883    1.4228    0.0000 C   0  0  0  0  0  0  0  0  0  0  0  0
   -4.7482    0.7991    0.0000 C   0  0  0  0  0  0  0  0  0  0  0  0
   -0.4275   -2.0073    0.0000 C   0  0  3  0  0  0  0  0  0  0  0  0
   -0.1574   -1.2277    0.0000 C   0  0  0  0  0  0  0  0  0  0  0  0
   -0.6975   -0.6041    0.0000 C   0  0  0  0  0  0  0  0  0  0  0  0
   -1.5077   -0.7600    0.0000 C   0  0  0  0  0  0  0  0  0  0  0  0
   -2.0477   -0.1363    0.0000 C   0  0  0  0  0  0  0  0  0  0  0  0
   -1.7777    0.6432    0.0000 C   0  0  0  0  0  0  0  0  0  0  0  0
   -0.9676    0.7991    0.0000 C   0  0  0  0  0  0  0  0  0  0  0  0
   -0.4275    0.1755    0.0000 C   0  0  0  0  0  0  0  0  0  0  0  0
    0.1126   -2.6309    0.0000 N   0  0  0  0  0  0  0  0  0  0  0  0
    0.9227   -2.4750    0.0000 C   0  0  0  0  0  0  0  0  0  0  0  0
    1.4628   -3.0986    0.0000 O   0  0  0  0  0  0  0  0  0  0  0  0
    1.1928   -1.6954    0.0000 N   0  0  0  0  0  0  0  0  0  0  0  0
    0.6527   -1.0718    0.0000 C   0  0  0  0  0  0  0  0  0  0  0  0
    0.9227   -0.2923    0.0000 C   0  0  0  0  0  0  0  0  0  0  0  0
    1.7329   -0.1363    0.0000 O   0  0  0  0  0  0  0  0  0  0  0  0
    2.2730   -0.7600    0.0000 C   0  0  0  0  0  0  0  0  0  0  0  0
    2.0029   -1.5395    0.0000 C   0  0  0  0  0  0  0  0  0  0  0  0
  1  2  2  0  0  0  0
  2  3  1  0  0  0  0
  2 24  1  0  0  0  0
  3  4  1  0  0  0  0
  4  5  1  0  0  0  0
  4 13  1  0  0  0  0
  5  6  1  0  0  0  0
  6  7  1  0  0  0  0
  7  8  2  0  0  0  0
  7 12  1  0  0  0  0
  8  9  1  0  0  0  0
  9 10  2  0  0  0  0
 10 11  1  0  0  0  0
 11 12  2  0  0  0  0
 13 14  2  0  0  0  0
 14 15  1  0  0  0  0
 15 16  2  0  0  0  0
 15 17  2  0  0  0  0
 15 18  1  0  0  0  0
 18 19  2  0  0  0  0
 18 23  1  0  0  0  0
 19 20  1  0  0  0  0
 20 21  2  0  0  0  0
 21 22  1  0  0  0  0
 22 23  2  0  0  0  0
 24 25  1  0  0  0  0
 24 32  1  0  0  0  0
 25 26  1  0  0  0  0
 26 27  2  0  0  0  0
 26 31  1  0  0  0  0
 27 28  1  0  0  0  0
 28 29  2  0  0  0  0
 29 30  1  0  0  0  0
 30 31  2  0  0  0  0
 32 33  1  0  0  0  0
 33 34  2  0  0  0  0
 33 35  1  0  0  0  0
 35 36  1  0  0  0  0
 35 40  1  0  0  0  0
 36 37  1  0  0  0  0
 37 38  1  0  0  0  0
 38 39  1  0  0  0  0
 39 40  1  0  0  0  0
M  END
$$$$

 OpenBabel12191814062D

 31 35  0  0  0  0  0  0  0  0999 V2000
   -0.7145   -1.2375    0.0000 O   0  0  0  0  0  0  0  0  0  0  0  0
    0.0000   -1.6500    0.0000 C   0  0  0  0  0  0  0  0  0  0  0  0
    0.0000   -2.4750    0.0000 N   0  0  0  0  0  0  0  0  0  0  0  0
   -0.7145   -2.8875    0.0000 C   0  0  0  0  0  0  0  0  0  0  0  0
   -0.7145   -3.7125    0.0000 C   0  0  0  0  0  0  0  0  0  0  0  0
   -1.4289   -4.1250    0.0000 C   0  0  0  0  0  0  0  0  0  0  0  0
   -2.1434   -3.7125    0.0000 C   0  0  0  0  0  0  0  0  0  0  0  0
   -2.8579   -4.1250    0.0000 C   0  0  0  0  0  0  0  0  0  0  0  0
   -3.5724   -3.7125    0.0000 C   0  0  0  0  0  0  0  0  0  0  0  0
   -4.2868   -4.1250    0.0000 N   0  0  0  0  0  0  0  0  0  0  0  0
   -4.2868   -4.9500    0.0000 C   0  0  0  0  0  0  0  0  0  0  0  0
   -5.0013   -5.3625    0.0000 C   0  0  0  0  0  0  0  0  0  0  0  0
   -5.7158   -4.9500    0.0000 C   0  0  0  0  0  0  0  0  0  0  0  0
   -6.4302   -5.3625    0.0000 C   0  0  0  0  0  0  0  0  0  0  0  0
   -7.1447   -4.9500    0.0000 C   0  0  0  0  0  0  0  0  0  0  0  0
   -7.1447   -4.1250    0.0000 C   0  0  0  0  0  0  0  0  0  0  0  0
   -6.4302   -3.7125    0.0000 C   0  0  0  0  0  0  0  0  0  0  0  0
   -5.7158   -4.1250    0.0000 C   0  0  0  0  0  0  0  0  0  0  0  0
   -5.0013   -3.7125    0.0000 C   0  0  0  0  0  0  0  0  0  0  0  0
   -2.1434   -2.8875    0.0000 C   0  0  0  0  0  0  0  0  0  0  0  0
   -1.4289   -2.4750    0.0000 C   0  0  0  0  0  0  0  0  0  0  0  0
    0.7145   -1.2375    0.0000 C   0  0  0  0  0  0  0  0  0  0  0  0
    0.7145   -0.4125    0.0000 C   0  0  0  0  0  0  0  0  0  0  0  0
    1.4289    0.0000    0.0000 N   0  0  0  0  0  0  0  0  0  0  0  0
    2.1434   -0.4125    0.0000 C   0  0  0  0  0  0  0  0  0  0  0  0
    2.8579    0.0000    0.0000 C   0  0  0  0  0  0  0  0  0  0  0  0
    3.5724   -0.4125    0.0000 C   0  0  0  0  0  0  0  0  0  0  0  0
    3.5724   -1.2375    0.0000 C   0  0  0  0  0  0  0  0  0  0  0  0
    2.8579   -1.6500    0.0000 C   0  0  0  0  0  0  0  0  0  0  0  0
    2.1434   -1.2375    0.0000 C   0  0  0  0  0  0  0  0  0  0  0  0
    1.4289   -1.6500    0.0000 C   0  0  0  0  0  0  0  0  0  0  0  0
  1  2  2  0  0  0  0
  2  3  1  0  0  0  0
  2 22  1  0  0  0  0
  3  4  1  0  0  0  0
  4  5  2  0  0  0  0
  4 21  1  0  0  0  0
  5  6  1  0  0  0  0
  6  7  2  0  0  0  0
  7  8  1  0  0  0  0
  7 20  1  0  0  0  0
  8  9  1  0  0  0  0
  9 10  1  0  0  0  0
 10 11  1  0  0  0  0
 10 19  1  0  0  0  0
 11 12  1  0  0  0  0
 12 13  1  0  0  0  0
 13 14  2  0  0  0  0
 13 18  1  0  0  0  0
 14 15  1  0  0  0  0
 15 16  2  0  0  0  0
 16 17  1  0  0  0  0
 17 18  2  0  0  0  0
 18 19  1  0  0  0  0
 20 21  2  0  0  0  0
 22 23  2  0  0  0  0
 22 31  1  0  0  0  0
 23 24  1  0  0  0  0
 24 25  2  0  0  0  0
 25 26  1  0  0  0  0
 25 30  1  0  0  0  0
 26 27  2  0  0  0  0
 27 28  1  0  0  0  0
 28 29  2  0  0  0  0
 29 30  1  0  0  0  0
 30 31  2  0  0  0  0
M  END
$$$$

 OpenBabel12191814062D

 29 31  0  0  0  0  0  0  0  0999 V2000
    2.8579   -4.1250    0.0000 O   0  0  0  0  0  0  0  0  0  0  0  0
    2.8579   -4.9500    0.0000 C   0  0  0  0  0  0  0  0  0  0  0  0
    2.1434   -5.3625    0.0000 N   0  0  0  0  0  0  0  0  0  0  0  0
    1.4289   -4.9500    0.0000 C   0  0  0  0  0  0  0  0  0  0  0  0
    0.7145   -5.3625    0.0000 C   0  0  0  0  0  0  0  0  0  0  0  0
    0.0000   -4.9500    0.0000 C   0  0  0  0  0  0  0  0  0  0  0  0
    0.0000   -4.1250    0.0000 C   0  0  0  0  0  0  0  0  0  0  0  0
    0.7145   -3.7125    0.0000 C   0  0  0  0  0  0  0  0  0  0  0  0
    1.4289   -4.1250    0.0000 C   0  0  0  0  0  0  0  0  0  0  0  0
    3.5724   -5.3625    0.0000 O   0  0  0  0  0  0  0  0  0  0  0  0
    4.2868   -4.9500    0.0000 C   0  0  0  0  0  0  0  0  0  0  0  0
    5.0013   -5.3625    0.0000 C   0  0  3  0  0  0  0  0  0  0  0  0
    5.0013   -6.1875    0.0000 C   0  0  0  0  0  0  0  0  0  0  0  0
    4.2868   -6.6000    0.0000 N   0  0  0  0  0  0  0  0  0  0  0  0
    4.2868   -7.4250    0.0000 C   0  0  0  0  0  0  0  0  0  0  0  0
    3.5724   -7.8375    0.0000 C   0  0  0  0  0  0  0  0  0  0  0  0
    2.8579   -7.4250    0.0000 C   0  0  0  0  0  0  0  0  0  0  0  0
    2.8579   -6.6000    0.0000 C   0  0  0  0  0  0  0  0  0  0  0  0
    3.5724   -6.1875    0.0000 C   0  0  0  0  0  0  0  0  0  0  0  0
    5.7158   -4.9500    0.0000 O   0  0  0  0  0  0  0  0  0  0  0  0
    6.4302   -5.3625    0.0000 C   0  0  0  0  0  0  0  0  0  0  0  0
    6.4302   -6.1875    0.0000 O   0  0  0  0  0  0  0  0  0  0  0  0
    7.1447   -4.9500    0.0000 N   0  0  0  0  0  0  0  0  0  0  0  0
    7.8592   -5.3625    0.0000 C   0  0  0  0  0  0  0  0  0  0  0  0
    8.5737   -4.9500    0.0000 C   0  0  0  0  0  0  0  0  0  0  0  0
    9.2881   -5.3625    0.0000 C   0  0  0  0  0  0  0  0  0  0  0  0
    9.2881   -6.1875    0.0000 C   0  0  0  0  0  0  0  0  0  0  0  0
    8.5737   -6.6000    0.0000 C   0  0  0  0  0  0  0  0  0  0  0  0
    7.8592   -6.1875    0.0000 C   0  0  0  0  0  0  0  0  0  0  0  0
  1  2  2  0  0  0  0
  2  3  1  0  0  0  0
  2 10  1  0  0  0  0
  3  4  1  0  0  0  0
  4  5  2  0  0  0  0
  4  9  1  0  0  0  0
  5  6  1  0  0  0  0
  6  7  2  0  0  0  0
  7  8  1  0  0  0  0
  8  9  2  0  0  0  0
 10 11  1  0  0  0  0
 11 12  1  0  0  0  0
 12 13  1  0  0  0  0
 12 20  1  0  0  0  0
 13 14  1  0  0  0  0
 14 15  1  0  0  0  0
 14 19  1  0  0  0  0
 15 16  1  0  0  0  0
 16 17  1  0  0  0  0
 17 18  1  0  0  0  0
 18 19  1  0  0  0  0
 20 21  1  0  0  0  0
 21 22  2  0  0  0  0
 21 23  1  0  0  0  0
 23 24  1  0  0  0  0
 24 25  2  0  0  0  0
 24 29  1  0  0  0  0
 25 26  1  0  0  0  0
 26 27  2  0  0  0  0
 27 28  1  0  0  0  0
 28 29  2  0  0  0  0
M  END
$$$$

 OpenBabel12191814062D

 30 32  0  0  0  0  0  0  0  0999 V2000
   -2.8579   -4.1250    0.0000 O   0  0  0  0  0  0  0  0  0  0  0  0
   -2.1434   -3.7125    0.0000 C   0  0  0  0  0  0  0  0  0  0  0  0
   -2.1434   -2.8875    0.0000 N   0  0  0  0  0  0  0  0  0  0  0  0
   -2.8579   -2.4750    0.0000 C   0  0  0  0  0  0  0  0  0  0  0  0
   -3.5724   -2.8875    0.0000 C   0  0  0  0  0  0  0  0  0  0  0  0
   -4.2868   -2.4750    0.0000 C   0  0  0  0  0  0  0  0  0  0  0  0
   -4.2868   -1.6500    0.0000 C   0  0  0  0  0  0  0  0  0  0  0  0
   -3.5724   -1.2375    0.0000 C   0  0  0  0  0  0  0  0  0  0  0  0
   -2.8579   -1.6500    0.0000 C   0  0  0  0  0  0  0  0  0  0  0  0
   -1.4289   -4.1250    0.0000 O   0  0  0  0  0  0  0  0  0  0  0  0
   -1.4289   -4.9500    0.0000 C   0  0  0  0  0  0  0  0  0  0  0  0
   -0.7145   -5.3625    0.0000 C   0  0  0  0  0  0  0  0  0  0  0  0
    0.0000   -4.9500    0.0000 N   0  0  0  0  0  0  0  0  0  0  0  0
    0.0000   -4.1250    0.0000 C   0  0  0  0  0  0  0  0  0  0  0  0
    0.7145   -3.7125    0.0000 C   0  0  0  0  0  0  0  0  0  0  0  0
    1.4289   -4.1250    0.0000 N   0  0  0  0  0  0  0  0  0  0  0  0
    2.1434   -3.7125    0.0000 C   0  0  0  0  0  0  0  0  0  0  0  0
    2.8579   -4.1250    0.0000 C   0  0  0  0  0  0  0  0  0  0  0  0
    3.5724   -3.7125    0.0000 O   0  0  0  0  0  0  0  0  0  0  0  0
    4.2868   -4.1250    0.0000 C   0  0  0  0  0  0  0  0  0  0  0  0
    4.2868   -4.9500    0.0000 O   0  0  0  0  0  0  0  0  0  0  0  0
    5.0013   -3.7125    0.0000 N   0  0  0  0  0  0  0  0  0  0  0  0
    5.7158   -4.1250    0.0000 C   0  0  0  0  0  0  0  0  0  0  0  0
    6.4302   -3.7125    0.0000 C   0  0  0  0  0  0  0  0  0  0  0  0
    7.1447   -4.1250    0.0000 C   0  0  0  0  0  0  0  0  0  0  0  0
    7.1447   -4.9500    0.0000 C   0  0  0  0  0  0  0  0  0  0  0  0
    6.4302   -5.3625    0.0000 C   0  0  0  0  0  0  0  0  0  0  0  0
    5.7158   -4.9500    0.0000 C   0  0  0  0  0  0  0  0  0  0  0  0
    1.4289   -4.9500    0.0000 C   0  0  0  0  0  0  0  0  0  0  0  0
    0.7145   -5.3625    0.0000 C   0  0  0  0  0  0  0  0  0  0  0  0
  1  2  2  0  0  0  0
  2  3  1  0  0  0  0
  2 10  1  0  0  0  0
  3  4  1  0  0  0  0
  4  5  2  0  0  0  0
  4  9  1  0  0  0  0
  5  6  1  0  0  0  0
  6  7  2  0  0  0  0
  7  8  1  0  0  0  0
  8  9  2  0  0  0  0
 10 11  1  0  0  0  0
 11 12  1  0  0  0  0
 12 13  1  0  0  0  0
 13 14  1  0  0  0  0
 13 30  1  0  0  0  0
 14 15  1  0  0  0  0
 15 16  1  0  0  0  0
 16 17  1  0  0  0  0
 16 29  1  0  0  0  0
 17 18  1  0  0  0  0
 18 19  1  0  0  0  0
 19 20  1  0  0  0  0
 20 21  2  0  0  0  0
 20 22  1  0  0  0  0
 22 23  1  0  0  0  0
 23 24  2  0  0  0  0
 23 28  1  0  0  0  0
 24 25  1  0  0  0  0
 25 26  2  0  0  0  0
 26 27  1  0  0  0  0
 27 28  2  0  0  0  0
 29 30  1  0  0  0  0
M  END
$$$$

 OpenBabel12191814062D

 40 45  0  0  0  0  0  0  0  0999 V2000
   -0.7145   -1.2375    0.0000 O   0  0  0  0  0  0  0  0  0  0  0  0
    0.0000   -1.6500    0.0000 C   0  0  0  0  0  0  0  0  0  0  0  0
    0.0000   -2.4750    0.0000 N   0  0  0  0  0  0  0  0  0  0  0  0
    0.7145   -2.8875    0.0000 C   0  0  0  0  0  0  0  0  0  0  0  0
    1.4289   -2.4750    0.0000 C   0  0  0  0  0  0  0  0  0  0  0  0
    2.1434   -2.8875    0.0000 C   0  0  0  0  0  0  0  0  0  0  0  0
    2.1434   -3.7125    0.0000 C   0  0  0  0  0  0  0  0  0  0  0  0
    1.4289   -4.1250    0.0000 C   0  0  0  0  0  0  0  0  0  0  0  0
    0.7145   -3.7125    0.0000 C   0  0  0  0  0  0  0  0  0  0  0  0
    0.0000   -4.1250    0.0000 C   0  0  0  0  0  0  0  0  0  0  0  0
   -0.7145   -3.7125    0.0000 O   0  0  0  0  0  0  0  0  0  0  0  0
    0.0000   -4.9500    0.0000 N   0  0  0  0  0  0  0  0  0  0  0  0
   -0.7145   -5.3625    0.0000 C   0  0  0  0  0  0  0  0  0  0  0  0
   -0.7145   -6.1875    0.0000 C   0  0  0  0  0  0  0  0  0  0  0  0
   -1.4289   -6.6000    0.0000 C   0  0  0  0  0  0  0  0  0  0  0  0
   -2.1434   -6.1875    0.0000 C   0  0  0  0  0  0  0  0  0  0  0  0
   -2.8579   -6.6000    0.0000 C   0  0  0  0  0  0  0  0  0  0  0  0
   -3.5724   -6.1875    0.0000 C   0  0  0  0  0  0  0  0  0  0  0  0
   -4.2868   -6.6000    0.0000 N   0  0  0  0  0  0  0  0  0  0  0  0
   -4.2868   -7.4250    0.0000 C   0  0  0  0  0  0  0  0  0  0  0  0
   -5.0013   -7.8375    0.0000 C   0  0  0  0  0  0  0  0  0  0  0  0
   -5.7158   -7.4250    0.0000 C   0  0  0  0  0  0  0  0  0  0  0  0
   -6.4302   -7.8375    0.0000 C   0  0  0  0  0  0  0  0  0  0  0  0
   -7.1447   -7.4250    0.0000 C   0  0  0  0  0  0  0  0  0  0  0  0
   -7.1447   -6.6000    0.0000 C   0  0  0  0  0  0  0  0  0  0  0  0
   -6.4302   -6.1875    0.0000 C   0  0  0  0  0  0  0  0  0  0  0  0
   -5.7158   -6.6000    0.0000 C   0  0  0  0  0  0  0  0  0  0  0  0
   -5.0013   -6.1875    0.0000 C   0  0  0  0  0  0  0  0  0  0  0  0
   -2.1434   -5.3625    0.0000 C   0  0  0  0  0  0  0  0  0  0  0  0
   -1.4289   -4.9500    0.0000 C   0  0  0  0  0  0  0  0  0  0  0  0
    0.7145   -1.2375    0.0000 C   0  0  0  0  0  0  0  0  0  0  0  0
    0.7145   -0.4125    0.0000 C   0  0  0  0  0  0  0  0  0  0  0  0
    1.4289    0.0000    0.0000 N   0  0  0  0  0  0  0  0  0  0  0  0
    2.1434   -0.4125    0.0000 C   0  0  0  0  0  0  0  0  0  0  0  0
    2.8579    0.0000    0.0000 C   0  0  0  0  0  0  0  0  0  0  0  0
    3.5724   -0.4125    0.0000 C   0  0  0  0  0  0  0  0  0  0  0  0
    3.5724   -1.2375    0.0000 C   0  0  0  0  0  0  0  0  0  0  0  0
    2.8579   -1.6500    0.0000 C   0  0  0  0  0  0  0  0  0  0  0  0
    2.1434   -1.2375    0.0000 C   0  0  0  0  0  0  0  0  0  0  0  0
    1.4289   -1.6500    0.0000 C   0  0  0  0  0  0  0  0  0  0  0  0
  1  2  2  0  0  0  0
  2  3  1  0  0  0  0
  2 31  1  0  0  0  0
  3  4  1  0  0  0  0
  4  5  2  0  0  0  0
  4  9  1  0  0  0  0
  5  6  1  0  0  0  0
  6  7  2  0  0  0  0
  7  8  1  0  0  0  0
  8  9  2  0  0  0  0
  9 10  1  0  0  0  0
 10 11  2  0  0  0  0
 10 12  1  0  0  0  0
 12 13  1  0  0  0  0
 13 14  2  0  0  0  0
 13 30  1  0  0  0  0
 14 15  1  0  0  0  0
 15 16  2  0  0  0  0
 16 17  1  0  0  0  0
 16 29  1  0  0  0  0
 17 18  1  0  0  0  0
 18 19  1  0  0  0  0
 19 20  1  0  0  0  0
 19 28  1  0  0  0  0
 20 21  1  0  0  0  0
 21 22  1  0  0  0  0
 22 23  2  0  0  0  0
 22 27  1  0  0  0  0
 23 24  1  0  0  0  0
 24 25  2  0  0  0  0
 25 26  1  0  0  0  0
 26 27  2  0  0  0  0
 27 28  1  0  0  0  0
 29 30  2  0  0  0  0
 31 32  2  0  0  0  0
 31 40  1  0  0  0  0
 32 33  1  0  0  0  0
 33 34  2  0  0  0  0
 34 35  1  0  0  0  0
 34 39  1  0  0  0  0
 35 36  2  0  0  0  0
 36 37  1  0  0  0  0
 37 38  2  0  0  0  0
 38 39  1  0  0  0  0
 39 40  2  0  0  0  0
M  END
$$$$

 OpenBabel12191814062D

 40 45  0  0  0  0  0  0  0  0999 V2000
    0.7145   -3.7125    0.0000 O   0  0  0  0  0  0  0  0  0  0  0  0
    0.0000   -4.1250    0.0000 C   0  0  0  0  0  0  0  0  0  0  0  0
    0.0000   -4.9500    0.0000 N   0  0  0  0  0  0  0  0  0  0  0  0
    0.7145   -5.3625    0.0000 C   0  0  3  0  0  0  0  0  0  0  0  0
    1.4289   -4.9500    0.0000 C   0  0  0  0  0  0  0  0  0  0  0  0
    2.1434   -5.3625    0.0000 C   0  0  0  0  0  0  0  0  0  0  0  0
    2.1434   -6.1875    0.0000 C   0  0  0  0  0  0  0  0  0  0  0  0
    1.4289   -6.6000    0.0000 C   0  0  0  0  0  0  0  0  0  0  0  0
    0.7145   -6.1875    0.0000 C   0  0  3  0  0  0  0  0  0  0  0  0
    0.0000   -6.6000    0.0000 N   0  0  0  0  0  0  0  0  0  0  0  0
    0.0000   -7.4250    0.0000 C   0  0  0  0  0  0  0  0  0  0  0  0
   -0.7145   -7.8375    0.0000 C   0  0  0  0  0  0  0  0  0  0  0  0
   -1.4289   -7.4250    0.0000 N   0  0  0  0  0  0  0  0  0  0  0  0
   -1.4289   -6.6000    0.0000 C   0  0  0  0  0  0  0  0  0  0  0  0
   -0.7145   -6.1875    0.0000 C   0  0  0  0  0  0  0  0  0  0  0  0
   -2.1434   -7.8375    0.0000 C   0  0  0  0  0  0  0  0  0  0  0  0
   -2.1434   -8.6625    0.0000 C   0  0  0  0  0  0  0  0  0  0  0  0
   -2.8579   -9.0750    0.0000 C   0  0  0  0  0  0  0  0  0  0  0  0
   -3.5724   -8.6625    0.0000 C   0  0  0  0  0  0  0  0  0  0  0  0
   -3.5724   -7.8375    0.0000 C   0  0  0  0  0  0  0  0  0  0  0  0
   -2.8579   -7.4250    0.0000 C   0  0  0  0  0  0  0  0  0  0  0  0
   -0.7145   -3.7125    0.0000 C   0  0  0  0  0  0  0  0  0  0  0  0
   -1.4289   -4.1250    0.0000 C   0  0  0  0  0  0  0  0  0  0  0  0
   -2.1434   -3.7125    0.0000 C   0  0  0  0  0  0  0  0  0  0  0  0
   -2.1434   -2.8875    0.0000 C   0  0  0  0  0  0  0  0  0  0  0  0
   -1.4289   -2.4750    0.0000 C   0  0  0  0  0  0  0  0  0  0  0  0
   -0.7145   -2.8875    0.0000 C   0  0  0  0  0  0  0  0  0  0  0  0
    0.0000   -2.4750    0.0000 N   0  0  0  0  0  0  0  0  0  0  0  0
    0.0000   -1.6500    0.0000 C   0  0  0  0  0  0  0  0  0  0  0  0
   -0.7145   -1.2375    0.0000 O   0  0  0  0  0  0  0  0  0  0  0  0
    0.7145   -1.2375    0.0000 C   0  0  0  0  0  0  0  0  0  0  0  0
    0.7145   -0.4125    0.0000 C   0  0  0  0  0  0  0  0  0  0  0  0
    1.4289    0.0000    0.0000 N   0  0  0  0  0  0  0  0  0  0  0  0
    2.1434   -0.4125    0.0000 C   0  0  0  0  0  0  0  0  0  0  0  0
    2.8579    0.0000    0.0000 C   0  0  0  0  0  0  0  0  0  0  0  0
    3.5724   -0.4125    0.0000 C   0  0  0  0  0  0  0  0  0  0  0  0
    3.5724   -1.2375    0.0000 C   0  0  0  0  0  0  0  0  0  0  0  0
    2.8579   -1.6500    0.0000 C   0  0  0  0  0  0  0  0  0  0  0  0
    2.1434   -1.2375    0.0000 C   0  0  0  0  0  0  0  0  0  0  0  0
    1.4289   -1.6500    0.0000 C   0  0  0  0  0  0  0  0  0  0  0  0
  1  2  2  0  0  0  0
  2  3  1  0  0  0  0
  2 22  1  0  0  0  0
  3  4  1  0  0  0  0
  4  5  1  0  0  0  0
  4  9  1  0  0  0  0
  5  6  1  0  0  0  0
  6  7  1  0  0  0  0
  7  8  1  0  0  0  0
  8  9  1  0  0  0  0
  9 10  1  0  0  0  0
 10 11  1  0  0  0  0
 10 15  1  0  0  0  0
 11 12  1  0  0  0  0
 12 13  1  0  0  0  0
 13 14  1  0  0  0  0
 13 16  1  0  0  0  0
 14 15  1  0  0  0  0
 16 17  2  0  0  0  0
 16 21  1  0  0  0  0
 17 18  1  0  0  0  0
 18 19  2  0  0  0  0
 19 20  1  0  0  0  0
 20 21  2  0  0  0  0
 22 23  2  0  0  0  0
 22 27  1  0  0  0  0
 23 24  1  0  0  0  0
 24 25  2  0  0  0  0
 25 26  1  0  0  0  0
 26 27  2  0  0  0  0
 27 28  1  0  0  0  0
 28 29  1  0  0  0  0
 29 30  2  0  0  0  0
 29 31  1  0  0  0  0
 31 32  2  0  0  0  0
 31 40  1  0  0  0  0
 32 33  1  0  0  0  0
 33 34  2  0  0  0  0
 34 35  1  0  0  0  0
 34 39  1  0  0  0  0
 35 36  2  0  0  0  0
 36 37  1  0  0  0  0
 37 38  2  0  0  0  0
 38 39  1  0  0  0  0
 39 40  2  0  0  0  0
M  END
$$$$

 OpenBabel12191814062D

 24 26  0  0  0  0  0  0  0  0999 V2000
    2.6048   -2.5562    0.0000 O   0  0  0  0  0  0  0  0  0  0  0  0
    2.6048   -1.7312    0.0000 C   0  0  0  0  0  0  0  0  0  0  0  0
    1.8904   -1.3187    0.0000 O   0  0  0  0  0  0  0  0  0  0  0  0
    1.1759   -1.7312    0.0000 C   0  0  0  0  0  0  0  0  0  0  0  0
    0.4614   -1.3187    0.0000 C   0  0  0  0  0  0  0  0  0  0  0  0
   -0.2530   -1.7312    0.0000 N   0  0  0  0  0  0  0  0  0  0  0  0
   -0.1914   -2.5539    0.0000 C   0  0  0  0  0  0  0  0  0  0  0  0
   -0.7962   -3.1150    0.0000 C   0  0  0  0  0  0  0  0  0  0  0  0
   -1.6119   -2.9921    0.0000 C   0  0  0  0  0  0  0  0  0  0  0  0
   -2.0244   -2.2776    0.0000 C   0  0  0  0  0  0  0  0  0  0  0  0
   -1.7230   -1.5096    0.0000 C   0  0  0  0  0  0  0  0  0  0  0  0
   -0.9347   -1.2665    0.0000 C   0  0  0  0  0  0  0  0  0  0  0  0
    3.3193   -1.3187    0.0000 C   0  0  3  0  0  0  0  0  0  0  0  0
    4.0338   -1.7312    0.0000 C   0  0  0  0  0  0  0  0  0  0  0  0
    4.7483   -1.3187    0.0000 C   0  0  0  0  0  0  0  0  0  0  0  0
    5.4627   -1.7312    0.0000 C   0  0  0  0  0  0  0  0  0  0  0  0
    5.4627   -2.5562    0.0000 C   0  0  0  0  0  0  0  0  0  0  0  0
    4.7483   -2.9687    0.0000 C   0  0  0  0  0  0  0  0  0  0  0  0
    4.0338   -2.5562    0.0000 C   0  0  0  0  0  0  0  0  0  0  0  0
    3.3193   -0.4937    0.0000 C   0  0  0  0  0  0  0  0  0  0  0  0
    2.6519   -0.0088    0.0000 C   0  0  0  0  0  0  0  0  0  0  0  0
    2.9068    0.7758    0.0000 C   0  0  0  0  0  0  0  0  0  0  0  0
    3.7318    0.7758    0.0000 S   0  0  0  0  0  0  0  0  0  0  0  0
    3.9868   -0.0088    0.0000 C   0  0  0  0  0  0  0  0  0  0  0  0
  1  2  2  0  0  0  0
  2  3  1  0  0  0  0
  2 13  1  0  0  0  0
  3  4  1  0  0  0  0
  4  5  1  0  0  0  0
  5  6  1  0  0  0  0
  6  7  1  0  0  0  0
  6 12  1  0  0  0  0
  7  8  1  0  0  0  0
  8  9  1  0  0  0  0
  9 10  1  0  0  0  0
 10 11  1  0  0  0  0
 11 12  1  0  0  0  0
 13 14  1  0  0  0  0
 13 20  1  0  0  0  0
 14 15  1  0  0  0  0
 14 19  1  0  0  0  0
 15 16  1  0  0  0  0
 16 17  1  0  0  0  0
 17 18  1  0  0  0  0
 18 19  1  0  0  0  0
 20 21  1  0  0  0  0
 20 24  2  0  0  0  0
 21 22  2  0  0  0  0
 22 23  1  0  0  0  0
 23 24  1  0  0  0  0
M  END
$$$$

 OpenBabel12191814062D

 42 46  0  0  0  0  0  0  0  0999 V2000
   -1.4289    0.8250    0.0000 O   0  0  0  0  0  0  0  0  0  0  0  0
   -2.1434    1.2375    0.0000 C   0  0  0  0  0  0  0  0  0  0  0  0
   -2.8579    0.8250    0.0000 O   0  0  0  0  0  0  0  0  0  0  0  0
   -2.8579   -0.0000    0.0000 C   0  0  0  0  0  0  0  0  0  0  0  0
   -3.5724   -0.4125    0.0000 C   0  0  0  0  0  0  0  0  0  0  0  0
   -3.5724   -1.2375    0.0000 N   0  0  0  0  0  0  0  0  0  0  0  0
   -2.8579   -1.6500    0.0000 C   0  0  0  0  0  0  0  0  0  0  0  0
   -2.8579   -2.4750    0.0000 C   0  0  0  0  0  0  0  0  0  0  0  0
   -3.5724   -2.8875    0.0000 N   0  0  0  0  0  0  0  0  0  0  0  0
   -3.5724   -3.7125    0.0000 C   0  0  0  0  0  0  0  0  0  0  0  0
   -4.2868   -4.1250    0.0000 C   0  0  0  0  0  0  0  0  0  0  0  0
   -4.2868   -4.9500    0.0000 O   0  0  0  0  0  0  0  0  0  0  0  0
   -5.0013   -5.3625    0.0000 C   0  0  0  0  0  0  0  0  0  0  0  0
   -5.7158   -4.9500    0.0000 O   0  0  0  0  0  0  0  0  0  0  0  0
   -5.0013   -6.1875    0.0000 C   0  0  0  0  0  0  0  0  0  0  0  0
   -5.7158   -6.6000    0.0000 C   0  0  0  0  0  0  0  0  0  0  0  0
   -5.7158   -7.4250    0.0000 C   0  0  0  0  0  0  0  0  0  0  0  0
   -6.4302   -7.8375    0.0000 C   0  0  0  0  0  0  0  0  0  0  0  0
   -7.1447   -7.4250    0.0000 C   0  0  0  0  0  0  0  0  0  0  0  0
   -7.1447   -6.6000    0.0000 C   0  0  0  0  0  0  0  0  0  0  0  0
   -6.4302   -6.1875    0.0000 C   0  0  0  0  0  0  0  0  0  0  0  0
   -4.2868   -6.6000    0.0000 C   0  0  0  0  0  0  0  0  0  0  0  0
   -3.5724   -6.1875    0.0000 C   0  0  0  0  0  0  0  0  0  0  0  0
   -2.8579   -6.6000    0.0000 C   0  0  0  0  0  0  0  0  0  0  0  0
   -2.8579   -7.4250    0.0000 C   0  0  0  0  0  0  0  0  0  0  0  0
   -3.5724   -7.8375    0.0000 C   0  0  0  0  0  0  0  0  0  0  0  0
   -4.2868   -7.4250    0.0000 C   0  0  0  0  0  0  0  0  0  0  0  0
   -4.2868   -2.4750    0.0000 C   0  0  0  0  0  0  0  0  0  0  0  0
   -4.2868   -1.6500    0.0000 C   0  0  0  0  0  0  0  0  0  0  0  0
   -2.1434    2.0625    0.0000 C   0  0  0  0  0  0  0  0  0  0  0  0
   -1.4289    2.4750    0.0000 C   0  0  0  0  0  0  0  0  0  0  0  0
   -1.4289    3.3000    0.0000 C   0  0  0  0  0  0  0  0  0  0  0  0
   -0.7145    3.7125    0.0000 C   0  0  0  0  0  0  0  0  0  0  0  0
    0.0000    3.3000    0.0000 C   0  0  0  0  0  0  0  0  0  0  0  0
    0.0000    2.4750    0.0000 C   0  0  0  0  0  0  0  0  0  0  0  0
   -0.7145    2.0625    0.0000 C   0  0  0  0  0  0  0  0  0  0  0  0
   -2.8579    2.4750    0.0000 C   0  0  0  0  0  0  0  0  0  0  0  0
   -3.5724    2.0625    0.0000 C   0  0  0  0  0  0  0  0  0  0  0  0
   -4.2868    2.4750    0.0000 C   0  0  0  0  0  0  0  0  0  0  0  0
   -4.2868    3.3000    0.0000 C   0  0  0  0  0  0  0  0  0  0  0  0
   -3.5724    3.7125    0.0000 C   0  0  0  0  0  0  0  0  0  0  0  0
   -2.8579    3.3000    0.0000 C   0  0  0  0  0  0  0  0  0  0  0  0
  1  2  2  0  0  0  0
  2  3  1  0  0  0  0
  2 30  1  0  0  0  0
  3  4  1  0  0  0  0
  4  5  1  0  0  0  0
  5  6  1  0  0  0  0
  6  7  1  0  0  0  0
  6 29  1  0  0  0  0
  7  8  1  0  0  0  0
  8  9  1  0  0  0  0
  9 10  1  0  0  0  0
  9 28  1  0  0  0  0
 10 11  1  0  0  0  0
 11 12  1  0  0  0  0
 12 13  1  0  0  0  0
 13 14  2  0  0  0  0
 13 15  1  0  0  0  0
 15 16  1  0  0  0  0
 15 22  1  0  0  0  0
 16 17  2  0  0  0  0
 16 21  1  0  0  0  0
 17 18  1  0  0  0  0
 18 19  2  0  0  0  0
 19 20  1  0  0  0  0
 20 21  2  0  0  0  0
 22 23  2  0  0  0  0
 22 27  1  0  0  0  0
 23 24  1  0  0  0  0
 24 25  2  0  0  0  0
 25 26  1  0  0  0  0
 26 27  2  0  0  0  0
 28 29  1  0  0  0  0
 30 31  1  0  0  0  0
 30 37  1  0  0  0  0
 31 32  2  0  0  0  0
 31 36  1  0  0  0  0
 32 33  1  0  0  0  0
 33 34  2  0  0  0  0
 34 35  1  0  0  0  0
 35 36  2  0  0  0  0
 37 38  2  0  0  0  0
 37 42  1  0  0  0  0
 38 39  1  0  0  0  0
 39 40  2  0  0  0  0
 40 41  1  0  0  0  0
 41 42  2  0  0  0  0
M  END
$$$$

 OpenBabel12191814062D

 33 37  0  0  0  0  0  0  0  0999 V2000
    0.7145   -0.4125    0.0000 O   0  0  0  0  0  0  0  0  0  0  0  0
    0.7145   -1.2375    0.0000 C   0  0  0  0  0  0  0  0  0  0  0  0
    1.3819   -1.7224    0.0000 C   0  0  0  0  0  0  0  0  0  0  0  0
    1.1270   -2.5070    0.0000 C   0  0  0  0  0  0  0  0  0  0  0  0
    0.3020   -2.5070    0.0000 N   0  0  0  0  0  0  0  0  0  0  0  0
    0.0470   -1.7224    0.0000 N   0  0  0  0  0  0  0  0  0  0  0  0
   -0.7376   -1.4675    0.0000 C   0  0  0  0  0  0  0  0  0  0  0  0
   -0.9091   -0.6605    0.0000 C   0  0  0  0  0  0  0  0  0  0  0  0
   -1.6937   -0.4056    0.0000 C   0  0  0  0  0  0  0  0  0  0  0  0
   -1.8653    0.4014    0.0000 N   0  0  0  0  0  0  0  0  0  0  0  0
   -2.6499    0.6563    0.0000 C   0  0  0  0  0  0  0  0  0  0  0  0
   -2.8214    1.4633    0.0000 C   0  0  0  0  0  0  0  0  0  0  0  0
   -2.2083    2.0153    0.0000 N   0  0  0  0  0  0  0  0  0  0  0  0
   -1.4237    1.7604    0.0000 C   0  0  0  0  0  0  0  0  0  0  0  0
   -1.2522    0.9534    0.0000 C   0  0  0  0  0  0  0  0  0  0  0  0
   -2.3798    2.8223    0.0000 C   0  0  0  0  0  0  0  0  0  0  0  0
   -3.1645    3.0773    0.0000 C   0  0  0  0  0  0  0  0  0  0  0  0
   -3.3360    3.8842    0.0000 C   0  0  0  0  0  0  0  0  0  0  0  0
   -2.7229    4.4363    0.0000 C   0  0  0  0  0  0  0  0  0  0  0  0
   -1.9383    4.1813    0.0000 C   0  0  0  0  0  0  0  0  0  0  0  0
   -1.7668    3.3743    0.0000 N   0  0  0  0  0  0  0  0  0  0  0  0
   -0.1830   -3.1745    0.0000 C   0  0  0  0  0  0  0  0  0  0  0  0
    0.1526   -3.9282    0.0000 C   0  0  0  0  0  0  0  0  0  0  0  0
   -0.3323   -4.5956    0.0000 C   0  0  0  0  0  0  0  0  0  0  0  0
   -1.1528   -4.5094    0.0000 C   0  0  0  0  0  0  0  0  0  0  0  0
   -1.4884   -3.7557    0.0000 C   0  0  0  0  0  0  0  0  0  0  0  0
   -1.0034   -3.0882    0.0000 C   0  0  0  0  0  0  0  0  0  0  0  0
    1.6119   -3.1745    0.0000 C   0  0  0  0  0  0  0  0  0  0  0  0
    2.4324   -3.0882    0.0000 C   0  0  0  0  0  0  0  0  0  0  0  0
    2.9173   -3.7557    0.0000 C   0  0  0  0  0  0  0  0  0  0  0  0
    2.5817   -4.5094    0.0000 C   0  0  0  0  0  0  0  0  0  0  0  0
    1.7613   -4.5956    0.0000 C   0  0  0  0  0  0  0  0  0  0  0  0
    1.2763   -3.9282    0.0000 C   0  0  0  0  0  0  0  0  0  0  0  0
  1  2  2  0  0  0  0
  2  3  1  0  0  0  0
  2  6  1  0  0  0  0
  3  4  2  0  0  0  0
  4  5  1  0  0  0  0
  4 28  1  0  0  0  0
  5  6  1  0  0  0  0
  5 22  1  0  0  0  0
  6  7  1  0  0  0  0
  7  8  1  0  0  0  0
  8  9  1  0  0  0  0
  9 10  1  0  0  0  0
 10 11  1  0  0  0  0
 10 15  1  0  0  0  0
 11 12  1  0  0  0  0
 12 13  1  0  0  0  0
 13 14  1  0  0  0  0
 13 16  1  0  0  0  0
 14 15  1  0  0  0  0
 16 17  2  0  0  0  0
 16 21  1  0  0  0  0
 17 18  1  0  0  0  0
 18 19  2  0  0  0  0
 19 20  1  0  0  0  0
 20 21  2  0  0  0  0
 22 23  2  0  0  0  0
 22 27  1  0  0  0  0
 23 24  1  0  0  0  0
 24 25  2  0  0  0  0
 25 26  1  0  0  0  0
 26 27  2  0  0  0  0
 28 29  2  0  0  0  0
 28 33  1  0  0  0  0
 29 30  1  0  0  0  0
 30 31  2  0  0  0  0
 31 32  1  0  0  0  0
 32 33  2  0  0  0  0
M  END
$$$$

 OpenBabel12191814062D

 25 28  0  0  0  0  0  0  0  0999 V2000
    2.1434    2.0625    0.0000 O   0  0  0  0  0  0  0  0  0  0  0  0
    2.1434    1.2375    0.0000 C   0  0  0  0  0  0  0  0  0  0  0  0
    2.8579    0.8250    0.0000 C   0  0  0  0  0  0  0  0  0  0  0  0
    3.5724    1.2375    0.0000 C   0  0  0  0  0  0  0  0  0  0  0  0
    4.2868    0.8250    0.0000 C   0  0  0  0  0  0  0  0  0  0  0  0
    4.2868   -0.0000    0.0000 C   0  0  0  0  0  0  0  0  0  0  0  0
    3.5724   -0.4125    0.0000 C   0  0  0  0  0  0  0  0  0  0  0  0
    2.8579    0.0000    0.0000 C   0  0  0  0  0  0  0  0  0  0  0  0
    2.1434   -0.4125    0.0000 N   0  0  0  0  0  0  0  0  0  0  0  0
    2.1434   -1.2375    0.0000 C   0  0  0  0  0  0  0  0  0  0  0  0
    2.8579   -1.6500    0.0000 C   0  0  0  0  0  0  0  0  0  0  0  0
    2.8579   -2.4750    0.0000 C   0  0  0  0  0  0  0  0  0  0  0  0
    3.5724   -2.8875    0.0000 C   0  0  0  0  0  0  0  0  0  0  0  0
    3.5724   -3.7125    0.0000 N   0  0  0  0  0  0  0  0  0  0  0  0
    4.2868   -4.1250    0.0000 C   0  0  0  0  0  0  0  0  0  0  0  0
    4.2868   -4.9500    0.0000 C   0  0  0  0  0  0  0  0  0  0  0  0
    3.5724   -5.3625    0.0000 C   0  0  0  0  0  0  0  0  0  0  0  0
    2.8579   -4.9500    0.0000 C   0  0  0  0  0  0  0  0  0  0  0  0
    2.8579   -4.1250    0.0000 C   0  0  0  0  0  0  0  0  0  0  0  0
    1.4289    0.0000    0.0000 C   0  0  0  0  0  0  0  0  0  0  0  0
    0.7145   -0.4125    0.0000 C   0  0  0  0  0  0  0  0  0  0  0  0
    0.0000    0.0000    0.0000 C   0  0  0  0  0  0  0  0  0  0  0  0
    0.0000    0.8250    0.0000 C   0  0  0  0  0  0  0  0  0  0  0  0
    0.7145    1.2375    0.0000 C   0  0  0  0  0  0  0  0  0  0  0  0
    1.4289    0.8250    0.0000 C   0  0  0  0  0  0  0  0  0  0  0  0
  1  2  2  0  0  0  0
  2  3  1  0  0  0  0
  2 25  1  0  0  0  0
  3  4  2  0  0  0  0
  3  8  1  0  0  0  0
  4  5  1  0  0  0  0
  5  6  2  0  0  0  0
  6  7  1  0  0  0  0
  7  8  2  0  0  0  0
  8  9  1  0  0  0  0
  9 10  1  0  0  0  0
  9 20  1  0  0  0  0
 10 11  1  0  0  0  0
 11 12  1  0  0  0  0
 12 13  1  0  0  0  0
 13 14  1  0  0  0  0
 14 15  1  0  0  0  0
 14 19  1  0  0  0  0
 15 16  1  0  0  0  0
 16 17  1  0  0  0  0
 17 18  1  0  0  0  0
 18 19  1  0  0  0  0
 20 21  2  0  0  0  0
 20 25  1  0  0  0  0
 21 22  1  0  0  0  0
 22 23  2  0  0  0  0
 23 24  1  0  0  0  0
 24 25  2  0  0  0  0
M  END
$$$$

 OpenBabel12191814062D

 25 28  0  0  0  0  0  0  0  0999 V2000
    2.1434    2.0625    0.0000 O   0  0  0  0  0  0  0  0  0  0  0  0
    2.1434    1.2375    0.0000 C   0  0  0  0  0  0  0  0  0  0  0  0
    2.8579    0.8250    0.0000 C   0  0  0  0  0  0  0  0  0  0  0  0
    3.5724    1.2375    0.0000 C   0  0  0  0  0  0  0  0  0  0  0  0
    4.2868    0.8250    0.0000 C   0  0  0  0  0  0  0  0  0  0  0  0
    4.2868   -0.0000    0.0000 C   0  0  0  0  0  0  0  0  0  0  0  0
    3.5724   -0.4125    0.0000 C   0  0  0  0  0  0  0  0  0  0  0  0
    2.8579    0.0000    0.0000 C   0  0  0  0  0  0  0  0  0  0  0  0
    2.1434   -0.4125    0.0000 N   0  0  0  0  0  0  0  0  0  0  0  0
    2.1434   -1.2375    0.0000 C   0  0  0  0  0  0  0  0  0  0  0  0
    2.8579   -1.6500    0.0000 C   0  0  0  0  0  0  0  0  0  0  0  0
    2.8579   -2.4750    0.0000 C   0  0  0  0  0  0  0  0  0  0  0  0
    3.5724   -2.8875    0.0000 C   0  0  0  0  0  0  0  0  0  0  0  0
    3.5724   -3.7125    0.0000 N   0  0  0  0  0  0  0  0  0  0  0  0
    4.2868   -4.1250    0.0000 C   0  0  0  0  0  0  0  0  0  0  0  0
    4.2868   -4.9500    0.0000 C   0  0  0  0  0  0  0  0  0  0  0  0
    3.5724   -5.3625    0.0000 O   0  0  0  0  0  0  0  0  0  0  0  0
    2.8579   -4.9500    0.0000 C   0  0  0  0  0  0  0  0  0  0  0  0
    2.8579   -4.1250    0.0000 C   0  0  0  0  0  0  0  0  0  0  0  0
    1.4289    0.0000    0.0000 C   0  0  0  0  0  0  0  0  0  0  0  0
    0.7145   -0.4125    0.0000 C   0  0  0  0  0  0  0  0  0  0  0  0
    0.0000    0.0000    0.0000 C   0  0  0  0  0  0  0  0  0  0  0  0
    0.0000    0.8250    0.0000 C   0  0  0  0  0  0  0  0  0  0  0  0
    0.7145    1.2375    0.0000 C   0  0  0  0  0  0  0  0  0  0  0  0
    1.4289    0.8250    0.0000 C   0  0  0  0  0  0  0  0  0  0  0  0
  1  2  2  0  0  0  0
  2  3  1  0  0  0  0
  2 25  1  0  0  0  0
  3  4  2  0  0  0  0
  3  8  1  0  0  0  0
  4  5  1  0  0  0  0
  5  6  2  0  0  0  0
  6  7  1  0  0  0  0
  7  8  2  0  0  0  0
  8  9  1  0  0  0  0
  9 10  1  0  0  0  0
  9 20  1  0  0  0  0
 10 11  1  0  0  0  0
 11 12  1  0  0  0  0
 12 13  1  0  0  0  0
 13 14  1  0  0  0  0
 14 15  1  0  0  0  0
 14 19  1  0  0  0  0
 15 16  1  0  0  0  0
 16 17  1  0  0  0  0
 17 18  1  0  0  0  0
 18 19  1  0  0  0  0
 20 21  2  0  0  0  0
 20 25  1  0  0  0  0
 21 22  1  0  0  0  0
 22 23  2  0  0  0  0
 23 24  1  0  0  0  0
 24 25  2  0  0  0  0
M  END
$$$$

 OpenBabel12191814062D

 24 27  0  0  0  0  0  0  0  0999 V2000
    2.1434    2.0625    0.0000 O   0  0  0  0  0  0  0  0  0  0  0  0
    2.1434    1.2375    0.0000 C   0  0  0  0  0  0  0  0  0  0  0  0
    2.8579    0.8250    0.0000 C   0  0  0  0  0  0  0  0  0  0  0  0
    3.5724    1.2375    0.0000 C   0  0  0  0  0  0  0  0  0  0  0  0
    4.2868    0.8250    0.0000 C   0  0  0  0  0  0  0  0  0  0  0  0
    4.2868   -0.0000    0.0000 C   0  0  0  0  0  0  0  0  0  0  0  0
    3.5724   -0.4125    0.0000 C   0  0  0  0  0  0  0  0  0  0  0  0
    2.8579    0.0000    0.0000 C   0  0  0  0  0  0  0  0  0  0  0  0
    2.1434   -0.4125    0.0000 N   0  0  0  0  0  0  0  0  0  0  0  0
    2.1434   -1.2375    0.0000 C   0  0  0  0  0  0  0  0  0  0  0  0
    1.4289   -1.6500    0.0000 C   0  0  0  0  0  0  0  0  0  0  0  0
    1.4289   -2.4750    0.0000 C   0  0  0  0  0  0  0  0  0  0  0  0
    0.7145   -2.8875    0.0000 N   0  0  0  0  0  0  0  0  0  0  0  0
    0.7145   -3.7125    0.0000 C   0  0  0  0  0  0  0  0  0  0  0  0
    0.0000   -4.1250    0.0000 C   0  0  0  0  0  0  0  0  0  0  0  0
   -0.7145   -3.7125    0.0000 C   0  0  0  0  0  0  0  0  0  0  0  0
   -0.7145   -2.8875    0.0000 C   0  0  0  0  0  0  0  0  0  0  0  0
    0.0000   -2.4750    0.0000 C   0  0  0  0  0  0  0  0  0  0  0  0
    1.4289    0.0000    0.0000 C   0  0  0  0  0  0  0  0  0  0  0  0
    0.7145   -0.4125    0.0000 C   0  0  0  0  0  0  0  0  0  0  0  0
    0.0000    0.0000    0.0000 C   0  0  0  0  0  0  0  0  0  0  0  0
    0.0000    0.8250    0.0000 C   0  0  0  0  0  0  0  0  0  0  0  0
    0.7145    1.2375    0.0000 C   0  0  0  0  0  0  0  0  0  0  0  0
    1.4289    0.8250    0.0000 C   0  0  0  0  0  0  0  0  0  0  0  0
  1  2  2  0  0  0  0
  2  3  1  0  0  0  0
  2 24  1  0  0  0  0
  3  4  2  0  0  0  0
  3  8  1  0  0  0  0
  4  5  1  0  0  0  0
  5  6  2  0  0  0  0
  6  7  1  0  0  0  0
  7  8  2  0  0  0  0
  8  9  1  0  0  0  0
  9 10  1  0  0  0  0
  9 19  1  0  0  0  0
 10 11  1  0  0  0  0
 11 12  1  0  0  0  0
 12 13  1  0  0  0  0
 13 14  1  0  0  0  0
 13 18  1  0  0  0  0
 14 15  1  0  0  0  0
 15 16  1  0  0  0  0
 16 17  1  0  0  0  0
 17 18  1  0  0  0  0
 19 20  2  0  0  0  0
 19 24  1  0  0  0  0
 20 21  1  0  0  0  0
 21 22  2  0  0  0  0
 22 23  1  0  0  0  0
 23 24  2  0  0  0  0
M  END
$$$$

 OpenBabel12191814062D

 24 27  0  0  0  0  0  0  0  0999 V2000
    2.1434    2.0625    0.0000 O   0  0  0  0  0  0  0  0  0  0  0  0
    2.1434    1.2375    0.0000 C   0  0  0  0  0  0  0  0  0  0  0  0
    2.8579    0.8250    0.0000 C   0  0  0  0  0  0  0  0  0  0  0  0
    3.5724    1.2375    0.0000 C   0  0  0  0  0  0  0  0  0  0  0  0
    4.2868    0.8250    0.0000 C   0  0  0  0  0  0  0  0  0  0  0  0
    4.2868   -0.0000    0.0000 C   0  0  0  0  0  0  0  0  0  0  0  0
    3.5724   -0.4125    0.0000 C   0  0  0  0  0  0  0  0  0  0  0  0
    2.8579    0.0000    0.0000 C   0  0  0  0  0  0  0  0  0  0  0  0
    2.1434   -0.4125    0.0000 N   0  0  0  0  0  0  0  0  0  0  0  0
    2.1434   -1.2375    0.0000 C   0  0  0  0  0  0  0  0  0  0  0  0
    1.4289   -1.6500    0.0000 C   0  0  0  0  0  0  0  0  0  0  0  0
    1.4289   -2.4750    0.0000 C   0  0  0  0  0  0  0  0  0  0  0  0
    0.7145   -2.8875    0.0000 N   0  0  0  0  0  0  0  0  0  0  0  0
    0.7145   -3.7125    0.0000 C   0  0  0  0  0  0  0  0  0  0  0  0
    0.0000   -4.1250    0.0000 C   0  0  0  0  0  0  0  0  0  0  0  0
   -0.7145   -3.7125    0.0000 O   0  0  0  0  0  0  0  0  0  0  0  0
   -0.7145   -2.8875    0.0000 C   0  0  0  0  0  0  0  0  0  0  0  0
    0.0000   -2.4750    0.0000 C   0  0  0  0  0  0  0  0  0  0  0  0
    1.4289    0.0000    0.0000 C   0  0  0  0  0  0  0  0  0  0  0  0
    0.7145   -0.4125    0.0000 C   0  0  0  0  0  0  0  0  0  0  0  0
    0.0000    0.0000    0.0000 C   0  0  0  0  0  0  0  0  0  0  0  0
    0.0000    0.8250    0.0000 C   0  0  0  0  0  0  0  0  0  0  0  0
    0.7145    1.2375    0.0000 C   0  0  0  0  0  0  0  0  0  0  0  0
    1.4289    0.8250    0.0000 C   0  0  0  0  0  0  0  0  0  0  0  0
  1  2  2  0  0  0  0
  2  3  1  0  0  0  0
  2 24  1  0  0  0  0
  3  4  2  0  0  0  0
  3  8  1  0  0  0  0
  4  5  1  0  0  0  0
  5  6  2  0  0  0  0
  6  7  1  0  0  0  0
  7  8  2  0  0  0  0
  8  9  1  0  0  0  0
  9 10  1  0  0  0  0
  9 19  1  0  0  0  0
 10 11  1  0  0  0  0
 11 12  1  0  0  0  0
 12 13  1  0  0  0  0
 13 14  1  0  0  0  0
 13 18  1  0  0  0  0
 14 15  1  0  0  0  0
 15 16  1  0  0  0  0
 16 17  1  0  0  0  0
 17 18  1  0  0  0  0
 19 20  2  0  0  0  0
 19 24  1  0  0  0  0
 20 21  1  0  0  0  0
 21 22  2  0  0  0  0
 22 23  1  0  0  0  0
 23 24  2  0  0  0  0
M  END
$$$$

 OpenBabel12191814062D

 17 19  0  0  0  0  0  0  0  0999 V2000
    1.4289   -2.4750    0.0000 O   0  0  0  0  0  0  0  0  0  0  0  0
    1.4289   -1.6500    0.0000 C   0  0  0  0  0  0  0  0  0  0  0  0
    0.7145   -1.2375    0.0000 C   0  0  0  0  0  0  0  0  0  0  0  0
    0.7145   -0.4125    0.0000 C   0  0  0  0  0  0  0  0  0  0  0  0
    1.4289    0.0000    0.0000 O   0  0  0  0  0  0  0  0  0  0  0  0
    2.1434   -0.4125    0.0000 C   0  0  0  0  0  0  0  0  0  0  0  0
    2.8579    0.0000    0.0000 C   0  0  0  0  0  0  0  0  0  0  0  0
    3.5724   -0.4125    0.0000 C   0  0  0  0  0  0  0  0  0  0  0  0
    3.5724   -1.2375    0.0000 C   0  0  0  0  0  0  0  0  0  0  0  0
    2.8579   -1.6500    0.0000 C   0  0  0  0  0  0  0  0  0  0  0  0
    2.1434   -1.2375    0.0000 C   0  0  0  0  0  0  0  0  0  0  0  0
    0.0000    0.0000    0.0000 C   0  0  0  0  0  0  0  0  0  0  0  0
   -0.7145   -0.4125    0.0000 C   0  0  0  0  0  0  0  0  0  0  0  0
   -1.4289    0.0000    0.0000 C   0  0  0  0  0  0  0  0  0  0  0  0
   -1.4289    0.8250    0.0000 C   0  0  0  0  0  0  0  0  0  0  0  0
   -0.7145    1.2375    0.0000 C   0  0  0  0  0  0  0  0  0  0  0  0
    0.0000    0.8250    0.0000 C   0  0  0  0  0  0  0  0  0  0  0  0
  1  2  2  0  0  0  0
  2  3  1  0  0  0  0
  2 11  1  0  0  0  0
  3  4  2  0  0  0  0
  4  5  1  0  0  0  0
  4 12  1  0  0  0  0
  5  6  1  0  0  0  0
  6  7  2  0  0  0  0
  6 11  1  0  0  0  0
  7  8  1  0  0  0  0
  8  9  2  0  0  0  0
  9 10  1  0  0  0  0
 10 11  2  0  0  0  0
 12 13  2  0  0  0  0
 12 17  1  0  0  0  0
 13 14  1  0  0  0  0
 14 15  2  0  0  0  0
 15 16  1  0  0  0  0
 16 17  2  0  0  0  0
M  END
$$$$

 OpenBabel12191814062D

 28 31  0  0  0  0  0  0  0  0999 V2000
    2.9195   -1.0164    0.0000 O   0  0  0  0  0  0  0  0  0  0  0  0
    2.5070   -0.3020    0.0000 C   0  0  0  0  0  0  0  0  0  0  0  0
    1.6820   -0.3020    0.0000 C   0  0  0  0  0  0  0  0  0  0  0  0
    1.2695    0.4125    0.0000 C   0  0  0  0  0  0  0  0  0  0  0  0
    0.7846   -0.2549    0.0000 C   0  0  0  0  0  0  0  0  0  0  0  0
    0.0000   -0.0000    0.0000 C   0  0  0  0  0  0  0  0  0  0  0  0
   -0.0000    0.8250    0.0000 C   0  0  0  0  0  0  0  0  0  0  0  0
    0.7846    1.0799    0.0000 C   0  0  0  0  0  0  0  0  0  0  0  0
    1.6820    1.1270    0.0000 C   0  0  0  0  0  0  0  0  0  0  0  0
    2.5070    1.1270    0.0000 C   0  0  0  0  0  0  0  0  0  0  0  0
    2.9195    1.8414    0.0000 O   0  0  0  0  0  0  0  0  0  0  0  0
    2.9195    0.4125    0.0000 N   0  0  0  0  0  0  0  0  0  0  0  0
    3.7445    0.4125    0.0000 C   0  0  0  0  0  0  0  0  0  0  0  0
    4.1570    1.1270    0.0000 C   0  0  0  0  0  0  0  0  0  0  0  0
    4.9820    1.1270    0.0000 C   0  0  0  0  0  0  0  0  0  0  0  0
    5.3945    1.8414    0.0000 C   0  0  0  0  0  0  0  0  0  0  0  0
    6.2195    1.8414    0.0000 N   0  0  0  0  0  0  0  0  0  0  0  0
    6.6320    2.5559    0.0000 C   0  0  0  0  0  0  0  0  0  0  0  0
    7.4570    2.5559    0.0000 C   0  0  0  0  0  0  0  0  0  0  0  0
    7.8695    1.8414    0.0000 N   0  0  0  0  0  0  0  0  0  0  0  0
    7.4570    1.1270    0.0000 C   0  0  0  0  0  0  0  0  0  0  0  0
    6.6320    1.1270    0.0000 C   0  0  0  0  0  0  0  0  0  0  0  0
    8.6945    1.8414    0.0000 C   0  0  0  0  0  0  0  0  0  0  0  0
    9.1070    2.5559    0.0000 N   0  0  0  0  0  0  0  0  0  0  0  0
    9.9320    2.5559    0.0000 C   0  0  0  0  0  0  0  0  0  0  0  0
   10.3445    1.8414    0.0000 C   0  0  0  0  0  0  0  0  0  0  0  0
    9.9320    1.1270    0.0000 C   0  0  0  0  0  0  0  0  0  0  0  0
    9.1070    1.1270    0.0000 N   0  0  0  0  0  0  0  0  0  0  0  0
  1  2  2  0  0  0  0
  2  3  1  0  0  0  0
  2 12  1  0  0  0  0
  3  4  1  0  0  0  0
  4  5  1  0  0  0  0
  4  8  1  0  0  0  0
  4  9  1  0  0  0  0
  5  6  1  0  0  0  0
  6  7  1  0  0  0  0
  7  8  1  0  0  0  0
  9 10  1  0  0  0  0
 10 11  2  0  0  0  0
 10 12  1  0  0  0  0
 12 13  1  0  0  0  0
 13 14  1  0  0  0  0
 14 15  1  0  0  0  0
 15 16  1  0  0  0  0
 16 17  1  0  0  0  0
 17 18  1  0  0  0  0
 17 22  1  0  0  0  0
 18 19  1  0  0  0  0
 19 20  1  0  0  0  0
 20 21  1  0  0  0  0
 20 23  1  0  0  0  0
 21 22  1  0  0  0  0
 23 24  2  0  0  0  0
 23 28  1  0  0  0  0
 24 25  1  0  0  0  0
 25 26  2  0  0  0  0
 26 27  1  0  0  0  0
 27 28  2  0  0  0  0
M  END
$$$$

 OpenBabel12191814062D

 27 30  0  0  0  0  0  0  0  0999 V2000
   -4.2868    4.1250    0.0000 O   0  0  0  0  0  0  0  0  0  0  0  0
   -3.5724    3.7125    0.0000 C   0  0  0  0  0  0  0  0  0  0  0  0
   -2.8579    4.1250    0.0000 C   0  0  0  0  0  0  0  0  0  0  0  0
   -2.1434    3.7125    0.0000 C   0  0  0  0  0  0  0  0  0  0  0  0
   -2.1434    2.8875    0.0000 C   0  0  0  0  0  0  0  0  0  0  0  0
   -1.4289    2.4750    0.0000 C   0  0  0  0  0  0  0  0  0  0  0  0
   -1.4289    1.6500    0.0000 C   0  0  0  0  0  0  0  0  0  0  0  0
   -0.7145    1.2375    0.0000 O   0  0  0  0  0  0  0  0  0  0  0  0
   -0.0000    1.6500    0.0000 C   0  0  0  0  0  0  0  0  0  0  0  0
    0.7145    1.2375    0.0000 C   0  0  0  0  0  0  0  0  0  0  0  0
    1.4289    1.6500    0.0000 C   0  0  0  0  0  0  0  0  0  0  0  0
    2.1434    1.2375    0.0000 C   0  0  0  0  0  0  0  0  0  0  0  0
    2.8579    1.6500    0.0000 C   0  0  0  0  0  0  0  0  0  0  0  0
    2.9441    2.4705    0.0000 N   0  0  0  0  0  0  0  0  0  0  0  0
    3.7511    2.6420    0.0000 N   0  0  0  0  0  0  0  0  0  0  0  0
    4.1636    1.9275    0.0000 N   0  0  0  0  0  0  0  0  0  0  0  0
    3.6116    1.3144    0.0000 N   0  0  0  0  0  0  0  0  0  0  0  0
    3.7831    0.5075    0.0000 C   0  0  0  0  0  0  0  0  0  0  0  0
    4.5677    0.2525    0.0000 C   0  0  0  0  0  0  0  0  0  0  0  0
    4.7392   -0.5544    0.0000 C   0  0  0  0  0  0  0  0  0  0  0  0
    4.1261   -1.1065    0.0000 C   0  0  0  0  0  0  0  0  0  0  0  0
    3.3415   -0.8515    0.0000 C   0  0  0  0  0  0  0  0  0  0  0  0
    3.1700   -0.0446    0.0000 C   0  0  0  0  0  0  0  0  0  0  0  0
   -2.1434    1.2375    0.0000 C   0  0  0  0  0  0  0  0  0  0  0  0
   -2.8579    1.6500    0.0000 C   0  0  0  0  0  0  0  0  0  0  0  0
   -2.8579    2.4750    0.0000 C   0  0  0  0  0  0  0  0  0  0  0  0
   -3.5724    2.8875    0.0000 N   0  0  0  0  0  0  0  0  0  0  0  0
  1  2  2  0  0  0  0
  2  3  1  0  0  0  0
  2 27  1  0  0  0  0
  3  4  1  0  0  0  0
  4  5  1  0  0  0  0
  5  6  2  0  0  0  0
  5 26  1  0  0  0  0
  6  7  1  0  0  0  0
  7  8  1  0  0  0  0
  7 24  2  0  0  0  0
  8  9  1  0  0  0  0
  9 10  1  0  0  0  0
 10 11  1  0  0  0  0
 11 12  1  0  0  0  0
 12 13  1  0  0  0  0
 13 14  2  0  0  0  0
 13 17  1  0  0  0  0
 14 15  1  0  0  0  0
 15 16  2  0  0  0  0
 16 17  1  0  0  0  0
 17 18  1  0  0  0  0
 18 19  1  0  0  0  0
 18 23  1  0  0  0  0
 19 20  1  0  0  0  0
 20 21  1  0  0  0  0
 21 22  1  0  0  0  0
 22 23  1  0  0  0  0
 24 25  1  0  0  0  0
 25 26  2  0  0  0  0
 26 27  1  0  0  0  0
M  END
$$$$

 OpenBabel12191814062D

 34 38  0  0  0  0  0  0  0  0999 V2000
    0.1616   -3.0841    0.0000 O   0  0  0  0  0  0  0  0  0  0  0  0
    0.6465   -2.4167    0.0000 C   0  0  0  0  0  0  0  0  0  0  0  0
    0.3915   -1.6320    0.0000 N   0  0  0  0  0  0  0  0  0  0  0  0
    1.0590   -1.1471    0.0000 C   0  0  0  0  0  0  0  0  0  0  0  0
    1.7264   -1.6320    0.0000 C   0  0  0  0  0  0  0  0  0  0  0  0
    2.5110   -1.3771    0.0000 O   0  0  0  0  0  0  0  0  0  0  0  0
    1.4715   -2.4167    0.0000 N   0  0  0  0  0  0  0  0  0  0  0  0
    1.9564   -3.0841    0.0000 C   0  0  0  0  0  0  0  0  0  0  0  0
    1.6208   -3.8378    0.0000 C   0  0  0  0  0  0  0  0  0  0  0  0
    2.1058   -4.5052    0.0000 C   0  0  0  0  0  0  0  0  0  0  0  0
    1.7702   -5.2589    0.0000 N   0  0  0  0  0  0  0  0  0  0  0  0
    2.2551   -5.9263    0.0000 C   0  0  0  0  0  0  0  0  0  0  0  0
    1.9196   -6.6800    0.0000 C   0  0  0  0  0  0  0  0  0  0  0  0
    1.0991   -6.7662    0.0000 C   0  0  0  0  0  0  0  0  0  0  0  0
    0.6142   -6.0988    0.0000 C   0  0  0  0  0  0  0  0  0  0  0  0
    0.9497   -5.3451    0.0000 C   0  0  0  0  0  0  0  0  0  0  0  0
    0.7635   -7.5199    0.0000 C   0  0  0  0  0  0  0  0  0  0  0  0
    1.2485   -8.1874    0.0000 C   0  0  0  0  0  0  0  0  0  0  0  0
    0.9129   -8.9410    0.0000 C   0  0  0  0  0  0  0  0  0  0  0  0
    0.0924   -9.0273    0.0000 C   0  0  0  0  0  0  0  0  0  0  0  0
   -0.3925   -8.3598    0.0000 C   0  0  0  0  0  0  0  0  0  0  0  0
   -0.0569   -7.6062    0.0000 C   0  0  0  0  0  0  0  0  0  0  0  0
    0.4517   -0.5887    0.0000 C   0  0  0  0  0  0  0  0  0  0  0  0
   -0.3355   -0.8354    0.0000 C   0  0  0  0  0  0  0  0  0  0  0  0
   -0.9428   -0.2770    0.0000 C   0  0  0  0  0  0  0  0  0  0  0  0
   -0.7629    0.5281    0.0000 C   0  0  0  0  0  0  0  0  0  0  0  0
    0.0244    0.7749    0.0000 C   0  0  0  0  0  0  0  0  0  0  0  0
    0.6317    0.2164    0.0000 C   0  0  0  0  0  0  0  0  0  0  0  0
    1.4640   -0.4284    0.0000 C   0  0  0  0  0  0  0  0  0  0  0  0
    1.0440    0.2817    0.0000 C   0  0  0  0  0  0  0  0  0  0  0  0
    1.4490    1.0005    0.0000 C   0  0  0  0  0  0  0  0  0  0  0  0
    2.2740    1.0091    0.0000 C   0  0  0  0  0  0  0  0  0  0  0  0
    2.6939    0.2990    0.0000 C   0  0  0  0  0  0  0  0  0  0  0  0
    2.2889   -0.4197    0.0000 C   0  0  0  0  0  0  0  0  0  0  0  0
  1  2  2  0  0  0  0
  2  3  1  0  0  0  0
  2  7  1  0  0  0  0
  3  4  1  0  0  0  0
  4  5  1  0  0  0  0
  4 23  1  0  0  0  0
  4 29  1  0  0  0  0
  5  6  2  0  0  0  0
  5  7  1  0  0  0  0
  7  8  1  0  0  0  0
  8  9  1  0  0  0  0
  9 10  1  0  0  0  0
 10 11  1  0  0  0  0
 11 12  1  0  0  0  0
 11 16  1  0  0  0  0
 12 13  1  0  0  0  0
 13 14  1  0  0  0  0
 14 15  1  0  0  0  0
 14 17  1  0  0  0  0
 15 16  1  0  0  0  0
 17 18  2  0  0  0  0
 17 22  1  0  0  0  0
 18 19  1  0  0  0  0
 19 20  2  0  0  0  0
 20 21  1  0  0  0  0
 21 22  2  0  0  0  0
 23 24  2  0  0  0  0
 23 28  1  0  0  0  0
 24 25  1  0  0  0  0
 25 26  2  0  0  0  0
 26 27  1  0  0  0  0
 27 28  2  0  0  0  0
 29 30  2  0  0  0  0
 29 34  1  0  0  0  0
 30 31  1  0  0  0  0
 31 32  2  0  0  0  0
 32 33  1  0  0  0  0
 33 34  2  0  0  0  0
M  END
$$$$

 OpenBabel12191814062D

 34 38  0  0  0  0  0  0  0  0999 V2000
    0.1616   -3.0841    0.0000 O   0  0  0  0  0  0  0  0  0  0  0  0
    0.6465   -2.4167    0.0000 C   0  0  0  0  0  0  0  0  0  0  0  0
    0.3915   -1.6320    0.0000 N   0  0  0  0  0  0  0  0  0  0  0  0
    1.0590   -1.1471    0.0000 C   0  0  0  0  0  0  0  0  0  0  0  0
    1.7264   -1.6320    0.0000 C   0  0  0  0  0  0  0  0  0  0  0  0
    2.5110   -1.3771    0.0000 O   0  0  0  0  0  0  0  0  0  0  0  0
    1.4715   -2.4167    0.0000 N   0  0  0  0  0  0  0  0  0  0  0  0
    1.9564   -3.0841    0.0000 C   0  0  0  0  0  0  0  0  0  0  0  0
    1.6208   -3.8378    0.0000 C   0  0  0  0  0  0  0  0  0  0  0  0
    2.1058   -4.5052    0.0000 C   0  0  0  0  0  0  0  0  0  0  0  0
    1.7702   -5.2589    0.0000 N   0  0  0  0  0  0  0  0  0  0  0  0
    2.2551   -5.9263    0.0000 C   0  0  0  0  0  0  0  0  0  0  0  0
    1.9196   -6.6800    0.0000 C   0  0  0  0  0  0  0  0  0  0  0  0
    1.0991   -6.7662    0.0000 N   0  0  0  0  0  0  0  0  0  0  0  0
    0.6142   -6.0988    0.0000 C   0  0  0  0  0  0  0  0  0  0  0  0
    0.9497   -5.3451    0.0000 C   0  0  0  0  0  0  0  0  0  0  0  0
    0.7635   -7.5199    0.0000 C   0  0  0  0  0  0  0  0  0  0  0  0
    1.2485   -8.1874    0.0000 C   0  0  0  0  0  0  0  0  0  0  0  0
    0.9129   -8.9410    0.0000 C   0  0  0  0  0  0  0  0  0  0  0  0
    0.0924   -9.0273    0.0000 C   0  0  0  0  0  0  0  0  0  0  0  0
   -0.3925   -8.3598    0.0000 C   0  0  0  0  0  0  0  0  0  0  0  0
   -0.0569   -7.6062    0.0000 C   0  0  0  0  0  0  0  0  0  0  0  0
    0.4517   -0.5887    0.0000 C   0  0  0  0  0  0  0  0  0  0  0  0
   -0.3355   -0.8354    0.0000 C   0  0  0  0  0  0  0  0  0  0  0  0
   -0.9428   -0.2770    0.0000 C   0  0  0  0  0  0  0  0  0  0  0  0
   -0.7629    0.5281    0.0000 C   0  0  0  0  0  0  0  0  0  0  0  0
    0.0244    0.7749    0.0000 C   0  0  0  0  0  0  0  0  0  0  0  0
    0.6317    0.2164    0.0000 C   0  0  0  0  0  0  0  0  0  0  0  0
    1.4640   -0.4284    0.0000 C   0  0  0  0  0  0  0  0  0  0  0  0
    1.0440    0.2817    0.0000 C   0  0  0  0  0  0  0  0  0  0  0  0
    1.4490    1.0005    0.0000 C   0  0  0  0  0  0  0  0  0  0  0  0
    2.2740    1.0091    0.0000 C   0  0  0  0  0  0  0  0  0  0  0  0
    2.6939    0.2990    0.0000 C   0  0  0  0  0  0  0  0  0  0  0  0
    2.2889   -0.4197    0.0000 C   0  0  0  0  0  0  0  0  0  0  0  0
  1  2  2  0  0  0  0
  2  3  1  0  0  0  0
  2  7  1  0  0  0  0
  3  4  1  0  0  0  0
  4  5  1  0  0  0  0
  4 23  1  0  0  0  0
  4 29  1  0  0  0  0
  5  6  2  0  0  0  0
  5  7  1  0  0  0  0
  7  8  1  0  0  0  0
  8  9  1  0  0  0  0
  9 10  1  0  0  0  0
 10 11  1  0  0  0  0
 11 12  1  0  0  0  0
 11 16  1  0  0  0  0
 12 13  1  0  0  0  0
 13 14  1  0  0  0  0
 14 15  1  0  0  0  0
 14 17  1  0  0  0  0
 15 16  1  0  0  0  0
 17 18  2  0  0  0  0
 17 22  1  0  0  0  0
 18 19  1  0  0  0  0
 19 20  2  0  0  0  0
 20 21  1  0  0  0  0
 21 22  2  0  0  0  0
 23 24  2  0  0  0  0
 23 28  1  0  0  0  0
 24 25  1  0  0  0  0
 25 26  2  0  0  0  0
 26 27  1  0  0  0  0
 27 28  2  0  0  0  0
 29 30  2  0  0  0  0
 29 34  1  0  0  0  0
 30 31  1  0  0  0  0
 31 32  2  0  0  0  0
 32 33  1  0  0  0  0
 33 34  2  0  0  0  0
M  END
$$$$

 OpenBabel12191814062D

 28 31  0  0  0  0  0  0  0  0999 V2000
    0.1616   -3.0841    0.0000 O   0  0  0  0  0  0  0  0  0  0  0  0
    0.6465   -2.4167    0.0000 C   0  0  0  0  0  0  0  0  0  0  0  0
    0.3915   -1.6320    0.0000 N   0  0  0  0  0  0  0  0  0  0  0  0
    1.0590   -1.1471    0.0000 C   0  0  0  0  0  0  0  0  0  0  0  0
    1.7264   -1.6320    0.0000 C   0  0  0  0  0  0  0  0  0  0  0  0
    2.5110   -1.3771    0.0000 O   0  0  0  0  0  0  0  0  0  0  0  0
    1.4715   -2.4167    0.0000 N   0  0  0  0  0  0  0  0  0  0  0  0
    1.9564   -3.0841    0.0000 C   0  0  0  0  0  0  0  0  0  0  0  0
    1.6208   -3.8378    0.0000 C   0  0  0  0  0  0  0  0  0  0  0  0
    2.1058   -4.5052    0.0000 C   0  0  0  0  0  0  0  0  0  0  0  0
    1.7702   -5.2589    0.0000 N   0  0  0  0  0  0  0  0  0  0  0  0
    2.2551   -5.9263    0.0000 C   0  0  0  0  0  0  0  0  0  0  0  0
    1.9196   -6.6800    0.0000 C   0  0  0  0  0  0  0  0  0  0  0  0
    1.0991   -6.7662    0.0000 O   0  0  0  0  0  0  0  0  0  0  0  0
    0.6142   -6.0988    0.0000 C   0  0  0  0  0  0  0  0  0  0  0  0
    0.9497   -5.3451    0.0000 C   0  0  0  0  0  0  0  0  0  0  0  0
    0.4517   -0.5887    0.0000 C   0  0  0  0  0  0  0  0  0  0  0  0
   -0.3355   -0.8354    0.0000 C   0  0  0  0  0  0  0  0  0  0  0  0
   -0.9428   -0.2770    0.0000 C   0  0  0  0  0  0  0  0  0  0  0  0
   -0.7629    0.5281    0.0000 C   0  0  0  0  0  0  0  0  0  0  0  0
    0.0244    0.7749    0.0000 C   0  0  0  0  0  0  0  0  0  0  0  0
    0.6317    0.2164    0.0000 C   0  0  0  0  0  0  0  0  0  0  0  0
    1.4640   -0.4284    0.0000 C   0  0  0  0  0  0  0  0  0  0  0  0
    1.0440    0.2817    0.0000 C   0  0  0  0  0  0  0  0  0  0  0  0
    1.4490    1.0005    0.0000 C   0  0  0  0  0  0  0  0  0  0  0  0
    2.2740    1.0091    0.0000 C   0  0  0  0  0  0  0  0  0  0  0  0
    2.6939    0.2990    0.0000 C   0  0  0  0  0  0  0  0  0  0  0  0
    2.2889   -0.4197    0.0000 C   0  0  0  0  0  0  0  0  0  0  0  0
  1  2  2  0  0  0  0
  2  3  1  0  0  0  0
  2  7  1  0  0  0  0
  3  4  1  0  0  0  0
  4  5  1  0  0  0  0
  4 17  1  0  0  0  0
  4 23  1  0  0  0  0
  5  6  2  0  0  0  0
  5  7  1  0  0  0  0
  7  8  1  0  0  0  0
  8  9  1  0  0  0  0
  9 10  1  0  0  0  0
 10 11  1  0  0  0  0
 11 12  1  0  0  0  0
 11 16  1  0  0  0  0
 12 13  1  0  0  0  0
 13 14  1  0  0  0  0
 14 15  1  0  0  0  0
 15 16  1  0  0  0  0
 17 18  2  0  0  0  0
 17 22  1  0  0  0  0
 18 19  1  0  0  0  0
 19 20  2  0  0  0  0
 20 21  1  0  0  0  0
 21 22  2  0  0  0  0
 23 24  2  0  0  0  0
 23 28  1  0  0  0  0
 24 25  1  0  0  0  0
 25 26  2  0  0  0  0
 26 27  1  0  0  0  0
 27 28  2  0  0  0  0
M  END
$$$$

 OpenBabel12191814062D

 32 36  0  0  0  0  0  0  0  0999 V2000
   -0.1712   -0.6979    0.0000 O   0  0  0  0  0  0  0  0  0  0  0  0
    0.6538   -0.6979    0.0000 C   0  0  0  0  0  0  0  0  0  0  0  0
    1.1387   -0.0305    0.0000 N   0  0  0  0  0  0  0  0  0  0  0  0
    1.9233   -0.2854    0.0000 C   0  0  0  0  0  0  0  0  0  0  0  0
    2.6378    0.1271    0.0000 C   0  0  0  0  0  0  0  0  0  0  0  0
    3.3523   -0.2854    0.0000 C   0  0  0  0  0  0  0  0  0  0  0  0
    3.3523   -1.1104    0.0000 C   0  0  0  0  0  0  0  0  0  0  0  0
    2.6378   -1.5229    0.0000 C   0  0  0  0  0  0  0  0  0  0  0  0
    1.9233   -1.1104    0.0000 C   0  0  0  0  0  0  0  0  0  0  0  0
    1.1387   -1.3654    0.0000 N   0  0  0  0  0  0  0  0  0  0  0  0
    0.8838   -2.1500    0.0000 C   0  0  0  0  0  0  0  0  0  0  0  0
    0.0768   -2.3215    0.0000 C   0  0  0  0  0  0  0  0  0  0  0  0
   -0.1781   -3.1062    0.0000 C   0  0  0  0  0  0  0  0  0  0  0  0
   -0.9851   -3.2777    0.0000 N   0  0  0  0  0  0  0  0  0  0  0  0
   -1.2400   -4.0623    0.0000 C   0  0  0  0  0  0  0  0  0  0  0  0
   -2.0470   -4.2338    0.0000 C   0  0  0  0  0  0  0  0  0  0  0  0
   -2.5990   -3.6207    0.0000 N   0  0  0  0  0  0  0  0  0  0  0  0
   -2.3441   -2.8361    0.0000 C   0  0  0  0  0  0  0  0  0  0  0  0
   -1.5371   -2.6646    0.0000 C   0  0  0  0  0  0  0  0  0  0  0  0
   -3.4060   -3.7923    0.0000 C   0  0  0  0  0  0  0  0  0  0  0  0
   -3.9580   -3.1792    0.0000 C   0  0  0  0  0  0  0  0  0  0  0  0
   -4.7650   -3.3507    0.0000 C   0  0  0  0  0  0  0  0  0  0  0  0
   -5.3171   -2.7376    0.0000 C   0  0  0  0  0  0  0  0  0  0  0  0
   -5.0621   -1.9530    0.0000 C   0  0  0  0  0  0  0  0  0  0  0  0
   -4.2551   -1.7814    0.0000 C   0  0  0  0  0  0  0  0  0  0  0  0
   -3.7031   -2.3945    0.0000 C   0  0  0  0  0  0  0  0  0  0  0  0
   -3.6610   -4.5769    0.0000 C   0  0  0  0  0  0  0  0  0  0  0  0
   -3.1089   -5.1900    0.0000 C   0  0  0  0  0  0  0  0  0  0  0  0
   -3.3639   -5.9746    0.0000 C   0  0  0  0  0  0  0  0  0  0  0  0
   -4.1708   -6.1461    0.0000 C   0  0  0  0  0  0  0  0  0  0  0  0
   -4.7229   -5.5330    0.0000 C   0  0  0  0  0  0  0  0  0  0  0  0
   -4.4679   -4.7484    0.0000 C   0  0  0  0  0  0  0  0  0  0  0  0
  1  2  2  0  0  0  0
  2  3  1  0  0  0  0
  2 10  1  0  0  0  0
  3  4  1  0  0  0  0
  4  5  2  0  0  0  0
  4  9  1  0  0  0  0
  5  6  1  0  0  0  0
  6  7  2  0  0  0  0
  7  8  1  0  0  0  0
  8  9  2  0  0  0  0
  9 10  1  0  0  0  0
 10 11  1  0  0  0  0
 11 12  1  0  0  0  0
 12 13  1  0  0  0  0
 13 14  1  0  0  0  0
 14 15  1  0  0  0  0
 14 19  1  0  0  0  0
 15 16  1  0  0  0  0
 16 17  1  0  0  0  0
 17 18  1  0  0  0  0
 17 20  1  0  0  0  0
 18 19  1  0  0  0  0
 20 21  1  0  0  0  0
 20 27  1  0  0  0  0
 21 22  2  0  0  0  0
 21 26  1  0  0  0  0
 22 23  1  0  0  0  0
 23 24  2  0  0  0  0
 24 25  1  0  0  0  0
 25 26  2  0  0  0  0
 27 28  2  0  0  0  0
 27 32  1  0  0  0  0
 28 29  1  0  0  0  0
 29 30  2  0  0  0  0
 30 31  1  0  0  0  0
 31 32  2  0  0  0  0
M  END
$$$$

 OpenBabel12191814062D

 30 34  0  0  0  0  0  0  0  0999 V2000
   -4.4976    0.0950    0.0000 O   0  0  0  0  0  0  0  0  0  0  0  0
   -4.3260    0.9019    0.0000 C   0  0  0  0  0  0  0  0  0  0  0  0
   -4.8781    1.5150    0.0000 O   0  0  0  0  0  0  0  0  0  0  0  0
   -4.4656    2.2295    0.0000 C   0  0  0  0  0  0  0  0  0  0  0  0
   -3.6586    2.0580    0.0000 C   0  0  0  0  0  0  0  0  0  0  0  0
   -3.5724    1.2375    0.0000 N   0  0  0  0  0  0  0  0  0  0  0  0
   -2.8579    0.8250    0.0000 C   0  0  0  0  0  0  0  0  0  0  0  0
   -2.1434    1.2375    0.0000 C   0  0  0  0  0  0  0  0  0  0  0  0
   -1.4289    0.8250    0.0000 N   0  0  0  0  0  0  0  0  0  0  0  0
   -0.7145    1.2375    0.0000 C   0  0  0  0  0  0  0  0  0  0  0  0
    0.0000    0.8250    0.0000 C   0  0  0  0  0  0  0  0  0  0  0  0
    0.0000    0.0000    0.0000 N   0  0  0  0  0  0  0  0  0  0  0  0
   -0.7145   -0.4125    0.0000 C   0  0  0  0  0  0  0  0  0  0  0  0
   -1.4289   -0.0000    0.0000 C   0  0  0  0  0  0  0  0  0  0  0  0
    0.7145   -0.4125    0.0000 C   0  0  0  0  0  0  0  0  0  0  0  0
    1.4289    0.0000    0.0000 C   0  0  0  0  0  0  0  0  0  0  0  0
    2.1434   -0.4125    0.0000 C   0  0  0  0  0  0  0  0  0  0  0  0
    2.8579    0.0000    0.0000 C   0  0  0  0  0  0  0  0  0  0  0  0
    3.5724   -0.4125    0.0000 C   0  0  0  0  0  0  0  0  0  0  0  0
    3.5724   -1.2375    0.0000 C   0  0  0  0  0  0  0  0  0  0  0  0
    2.8579   -1.6500    0.0000 C   0  0  0  0  0  0  0  0  0  0  0  0
    2.1434   -1.2375    0.0000 C   0  0  0  0  0  0  0  0  0  0  0  0
    1.4289   -1.6500    0.0000 C   0  0  0  0  0  0  0  0  0  0  0  0
    0.7145   -1.2375    0.0000 N   0  0  0  0  0  0  0  0  0  0  0  0
    1.4289   -2.4750    0.0000 C   0  0  0  0  0  0  0  0  0  0  0  0
    2.1434   -2.8875    0.0000 C   0  0  0  0  0  0  0  0  0  0  0  0
    2.1434   -3.7125    0.0000 C   0  0  0  0  0  0  0  0  0  0  0  0
    1.4289   -4.1250    0.0000 C   0  0  0  0  0  0  0  0  0  0  0  0
    0.7145   -3.7125    0.0000 C   0  0  0  0  0  0  0  0  0  0  0  0
    0.7145   -2.8875    0.0000 C   0  0  0  0  0  0  0  0  0  0  0  0
  1  2  2  0  0  0  0
  2  3  1  0  0  0  0
  2  6  1  0  0  0  0
  3  4  1  0  0  0  0
  4  5  1  0  0  0  0
  5  6  1  0  0  0  0
  6  7  1  0  0  0  0
  7  8  1  0  0  0  0
  8  9  1  0  0  0  0
  9 10  1  0  0  0  0
  9 14  1  0  0  0  0
 10 11  1  0  0  0  0
 11 12  1  0  0  0  0
 12 13  1  0  0  0  0
 12 15  1  0  0  0  0
 13 14  1  0  0  0  0
 15 16  2  0  0  0  0
 15 24  1  0  0  0  0
 16 17  1  0  0  0  0
 17 18  2  0  0  0  0
 17 22  1  0  0  0  0
 18 19  1  0  0  0  0
 19 20  2  0  0  0  0
 20 21  1  0  0  0  0
 21 22  2  0  0  0  0
 22 23  1  0  0  0  0
 23 24  2  0  0  0  0
 23 25  1  0  0  0  0
 25 26  2  0  0  0  0
 25 30  1  0  0  0  0
 26 27  1  0  0  0  0
 27 28  2  0  0  0  0
 28 29  1  0  0  0  0
 29 30  2  0  0  0  0
M  END
$$$$

 OpenBabel12191814062D

 31 35  0  0  0  0  0  0  0  0999 V2000
    4.5863   -4.8876    0.0000 O   0  0  0  0  0  0  0  0  0  0  0  0
    3.8017   -5.1426    0.0000 S   0  0  0  0  0  0  0  0  0  0  0  0
    3.0170   -5.3975    0.0000 O   0  0  0  0  0  0  0  0  0  0  0  0
    4.0566   -5.9272    0.0000 C   0  0  0  0  0  0  0  0  0  0  0  0
    4.8636   -6.0987    0.0000 C   0  0  0  0  0  0  0  0  0  0  0  0
    5.4156   -5.4856    0.0000 C   0  0  0  0  0  0  0  0  0  0  0  0
    6.2226   -5.6572    0.0000 C   0  0  0  0  0  0  0  0  0  0  0  0
    6.4775   -6.4418    0.0000 C   0  0  0  0  0  0  0  0  0  0  0  0
    5.9255   -7.0549    0.0000 C   0  0  0  0  0  0  0  0  0  0  0  0
    5.1185   -6.8834    0.0000 C   0  0  0  0  0  0  0  0  0  0  0  0
    3.5467   -4.3580    0.0000 N   0  0  0  0  0  0  0  0  0  0  0  0
    2.7397   -4.1864    0.0000 C   0  0  0  0  0  0  0  0  0  0  0  0
    2.4848   -3.4018    0.0000 C   0  0  0  0  0  0  0  0  0  0  0  0
    3.0368   -2.7887    0.0000 N   0  0  0  0  0  0  0  0  0  0  0  0
    3.8438   -2.9602    0.0000 C   0  0  0  0  0  0  0  0  0  0  0  0
    4.0987   -3.7449    0.0000 C   0  0  0  0  0  0  0  0  0  0  0  0
    2.7819   -2.0041    0.0000 C   0  0  0  0  0  0  0  0  0  0  0  0
    1.9749   -1.8326    0.0000 N   0  0  0  0  0  0  0  0  0  0  0  0
    1.7200   -1.0479    0.0000 C   0  0  0  0  0  0  0  0  0  0  0  0
    2.2720   -0.4349    0.0000 N   0  0  0  0  0  0  0  0  0  0  0  0
    3.0790   -0.6064    0.0000 C   0  0  0  0  0  0  0  0  0  0  0  0
    3.7464   -0.1215    0.0000 C   0  0  0  0  0  0  0  0  0  0  0  0
    3.7464    0.7035    0.0000 C   0  0  0  0  0  0  0  0  0  0  0  0
    3.7464    1.5285    0.0000 N   0  0  0  0  0  0  0  0  0  0  0  0
    4.4139   -0.6064    0.0000 C   0  0  0  0  0  0  0  0  0  0  0  0
    5.2208   -0.4349    0.0000 C   0  0  0  0  0  0  0  0  0  0  0  0
    5.7729   -1.0479    0.0000 C   0  0  0  0  0  0  0  0  0  0  0  0
    5.5179   -1.8326    0.0000 C   0  0  0  0  0  0  0  0  0  0  0  0
    4.7110   -2.0041    0.0000 C   0  0  0  0  0  0  0  0  0  0  0  0
    4.1589   -1.3910    0.0000 N   0  0  0  0  0  0  0  0  0  0  0  0
    3.3339   -1.3910    0.0000 C   0  0  0  0  0  0  0  0  0  0  0  0
  1  2  2  0  0  0  0
  2  3  2  0  0  0  0
  2  4  1  0  0  0  0
  2 11  1  0  0  0  0
  4  5  1  0  0  0  0
  5  6  2  0  0  0  0
  5 10  1  0  0  0  0
  6  7  1  0  0  0  0
  7  8  2  0  0  0  0
  8  9  1  0  0  0  0
  9 10  2  0  0  0  0
 11 12  1  0  0  0  0
 11 16  1  0  0  0  0
 12 13  1  0  0  0  0
 13 14  1  0  0  0  0
 14 15  1  0  0  0  0
 14 17  1  0  0  0  0
 15 16  1  0  0  0  0
 17 18  2  0  0  0  0
 17 31  1  0  0  0  0
 18 19  1  0  0  0  0
 19 20  2  0  0  0  0
 20 21  1  0  0  0  0
 21 22  1  0  0  0  0
 21 31  2  0  0  0  0
 22 23  1  0  0  0  0
 22 25  2  0  0  0  0
 23 24  3  0  0  0  0
 25 26  1  0  0  0  0
 25 30  1  0  0  0  0
 26 27  1  0  0  0  0
 27 28  1  0  0  0  0
 28 29  1  0  0  0  0
 29 30  1  0  0  0  0
 30 31  1  0  0  0  0
M  END
$$$$

 OpenBabel12191814062D

 26 29  0  0  0  0  0  0  0  0999 V2000
    3.0979   -3.9538    0.0000 O   0  0  0  0  0  0  0  0  0  0  0  0
    2.4848   -3.4018    0.0000 S   0  0  0  0  0  0  0  0  0  0  0  0
    1.8717   -2.8498    0.0000 O   0  0  0  0  0  0  0  0  0  0  0  0
    1.9328   -4.0149    0.0000 C   0  0  0  0  0  0  0  0  0  0  0  0
    2.1877   -4.7995    0.0000 C   0  0  0  0  0  0  0  0  0  0  0  0
    2.9947   -4.9711    0.0000 C   0  0  0  0  0  0  0  0  0  0  0  0
    3.2496   -5.7557    0.0000 C   0  0  0  0  0  0  0  0  0  0  0  0
    2.6976   -6.3688    0.0000 C   0  0  0  0  0  0  0  0  0  0  0  0
    1.8906   -6.1972    0.0000 C   0  0  0  0  0  0  0  0  0  0  0  0
    1.6357   -5.4126    0.0000 C   0  0  0  0  0  0  0  0  0  0  0  0
    3.0368   -2.7887    0.0000 N   0  0  0  0  0  0  0  0  0  0  0  0
    2.7819   -2.0041    0.0000 C   0  0  0  0  0  0  0  0  0  0  0  0
    1.9749   -1.8326    0.0000 N   0  0  0  0  0  0  0  0  0  0  0  0
    1.7200   -1.0479    0.0000 C   0  0  0  0  0  0  0  0  0  0  0  0
    2.2720   -0.4349    0.0000 N   0  0  0  0  0  0  0  0  0  0  0  0
    3.0790   -0.6064    0.0000 C   0  0  0  0  0  0  0  0  0  0  0  0
    3.7464   -0.1215    0.0000 C   0  0  0  0  0  0  0  0  0  0  0  0
    3.7464    0.7035    0.0000 C   0  0  0  0  0  0  0  0  0  0  0  0
    3.7464    1.5285    0.0000 N   0  0  0  0  0  0  0  0  0  0  0  0
    4.4139   -0.6064    0.0000 C   0  0  0  0  0  0  0  0  0  0  0  0
    5.2208   -0.4349    0.0000 C   0  0  0  0  0  0  0  0  0  0  0  0
    5.7729   -1.0479    0.0000 C   0  0  0  0  0  0  0  0  0  0  0  0
    5.5179   -1.8326    0.0000 C   0  0  0  0  0  0  0  0  0  0  0  0
    4.7110   -2.0041    0.0000 C   0  0  0  0  0  0  0  0  0  0  0  0
    4.1589   -1.3910    0.0000 N   0  0  0  0  0  0  0  0  0  0  0  0
    3.3339   -1.3910    0.0000 C   0  0  0  0  0  0  0  0  0  0  0  0
  1  2  2  0  0  0  0
  2  3  2  0  0  0  0
  2  4  1  0  0  0  0
  2 11  1  0  0  0  0
  4  5  1  0  0  0  0
  5  6  2  0  0  0  0
  5 10  1  0  0  0  0
  6  7  1  0  0  0  0
  7  8  2  0  0  0  0
  8  9  1  0  0  0  0
  9 10  2  0  0  0  0
 11 12  1  0  0  0  0
 12 13  2  0  0  0  0
 12 26  1  0  0  0  0
 13 14  1  0  0  0  0
 14 15  2  0  0  0  0
 15 16  1  0  0  0  0
 16 17  1  0  0  0  0
 16 26  2  0  0  0  0
 17 18  1  0  0  0  0
 17 20  2  0  0  0  0
 18 19  3  0  0  0  0
 20 21  1  0  0  0  0
 20 25  1  0  0  0  0
 21 22  1  0  0  0  0
 22 23  1  0  0  0  0
 23 24  1  0  0  0  0
 24 25  1  0  0  0  0
 25 26  1  0  0  0  0
M  END
$$$$

 OpenBabel12191814062D

 42 45  0  0  0  0  0  0  0  0999 V2000
    1.5395   -1.2375    0.0000 O   0  0  0  0  0  0  0  0  0  0  0  0
    0.7145   -1.2375    0.0000 S   0  0  0  0  0  0  0  0  0  0  0  0
   -0.1105   -1.2375    0.0000 O   0  0  0  0  0  0  0  0  0  0  0  0
    0.7145   -2.0625    0.0000 N   0  0  0  0  0  0  0  0  0  0  0  0
    1.4289   -2.4750    0.0000 C   0  0  0  0  0  0  0  0  0  0  0  0
    2.1434   -2.0625    0.0000 C   0  0  0  0  0  0  0  0  0  0  0  0
    2.8579   -2.4750    0.0000 C   0  0  0  0  0  0  0  0  0  0  0  0
    3.5724   -2.0625    0.0000 O   0  0  0  0  0  0  0  0  0  0  0  0
    4.2868   -2.4750    0.0000 C   0  0  0  0  0  0  0  0  0  0  0  0
    5.0013   -2.0625    0.0000 C   0  0  0  0  0  0  0  0  0  0  0  0
    5.7158   -2.4750    0.0000 C   0  0  0  0  0  0  0  0  0  0  0  0
    5.7158   -3.3000    0.0000 C   0  0  0  0  0  0  0  0  0  0  0  0
    5.0013   -3.7125    0.0000 C   0  0  0  0  0  0  0  0  0  0  0  0
    4.2868   -3.3000    0.0000 C   0  0  0  0  0  0  0  0  0  0  0  0
    0.0000   -2.4750    0.0000 C   0  0  0  0  0  0  0  0  0  0  0  0
   -0.7145   -2.0625    0.0000 C   0  0  0  0  0  0  0  0  0  0  0  0
   -1.4289   -2.4750    0.0000 N   0  0  0  0  0  0  0  0  0  0  0  0
   -2.1434   -2.0625    0.0000 C   0  0  0  0  0  0  0  0  0  0  0  0
   -2.1434   -1.2375    0.0000 C   0  0  0  0  0  0  0  0  0  0  0  0
   -1.4289   -0.8250    0.0000 C   0  0  0  0  0  0  0  0  0  0  0  0
   -1.4289   -0.0000    0.0000 O   0  0  0  0  0  0  0  0  0  0  0  0
   -2.1434    0.4125    0.0000 C   0  0  0  0  0  0  0  0  0  0  0  0
   -2.8579   -0.0000    0.0000 C   0  0  0  0  0  0  0  0  0  0  0  0
   -3.5724    0.4125    0.0000 C   0  0  0  0  0  0  0  0  0  0  0  0
   -3.5724    1.2375    0.0000 C   0  0  0  0  0  0  0  0  0  0  0  0
   -2.8579    1.6500    0.0000 C   0  0  0  0  0  0  0  0  0  0  0  0
   -2.1434    1.2375    0.0000 C   0  0  0  0  0  0  0  0  0  0  0  0
   -1.4289   -3.3000    0.0000 S   0  0  0  0  0  0  0  0  0  0  0  0
   -0.6039   -3.3000    0.0000 O   0  0  0  0  0  0  0  0  0  0  0  0
   -1.4289   -4.1250    0.0000 O   0  0  0  0  0  0  0  0  0  0  0  0
   -2.2539   -3.3000    0.0000 C   0  0  0  0  0  0  0  0  0  0  0  0
   -2.6664   -4.0145    0.0000 C   0  0  0  0  0  0  0  0  0  0  0  0
   -3.4914   -4.0145    0.0000 C   0  0  0  0  0  0  0  0  0  0  0  0
   -3.9039   -3.3000    0.0000 C   0  0  0  0  0  0  0  0  0  0  0  0
   -3.4914   -2.5855    0.0000 C   0  0  0  0  0  0  0  0  0  0  0  0
   -2.6664   -2.5855    0.0000 C   0  0  0  0  0  0  0  0  0  0  0  0
    0.7145   -0.4125    0.0000 C   0  0  0  0  0  0  0  0  0  0  0  0
    0.0000    0.0000    0.0000 C   0  0  0  0  0  0  0  0  0  0  0  0
    0.0000    0.8250    0.0000 C   0  0  0  0  0  0  0  0  0  0  0  0
    0.7145    1.2375    0.0000 C   0  0  0  0  0  0  0  0  0  0  0  0
    1.4289    0.8250    0.0000 C   0  0  0  0  0  0  0  0  0  0  0  0
    1.4289   -0.0000    0.0000 C   0  0  0  0  0  0  0  0  0  0  0  0
  1  2  2  0  0  0  0
  2  3  2  0  0  0  0
  2  4  1  0  0  0  0
  2 37  1  0  0  0  0
  4  5  1  0  0  0  0
  4 15  1  0  0  0  0
  5  6  1  0  0  0  0
  6  7  1  0  0  0  0
  7  8  1  0  0  0  0
  8  9  1  0  0  0  0
  9 10  2  0  0  0  0
  9 14  1  0  0  0  0
 10 11  1  0  0  0  0
 11 12  2  0  0  0  0
 12 13  1  0  0  0  0
 13 14  2  0  0  0  0
 15 16  1  0  0  0  0
 16 17  1  0  0  0  0
 17 18  1  0  0  0  0
 17 28  1  0  0  0  0
 18 19  1  0  0  0  0
 19 20  1  0  0  0  0
 20 21  1  0  0  0  0
 21 22  1  0  0  0  0
 22 23  2  0  0  0  0
 22 27  1  0  0  0  0
 23 24  1  0  0  0  0
 24 25  2  0  0  0  0
 25 26  1  0  0  0  0
 26 27  2  0  0  0  0
 28 29  2  0  0  0  0
 28 30  2  0  0  0  0
 28 31  1  0  0  0  0
 31 32  2  0  0  0  0
 31 36  1  0  0  0  0
 32 33  1  0  0  0  0
 33 34  2  0  0  0  0
 34 35  1  0  0  0  0
 35 36  2  0  0  0  0
 37 38  2  0  0  0  0
 37 42  1  0  0  0  0
 38 39  1  0  0  0  0
 39 40  2  0  0  0  0
 40 41  1  0  0  0  0
 41 42  2  0  0  0  0
M  END
$$$$

 OpenBabel12191814062D

 22 25  0  0  0  0  0  0  0  0999 V2000
    2.2396   -1.0709    0.0000 O   0  0  0  0  0  0  0  0  0  0  0  0
    2.9540   -1.4834    0.0000 C   0  0  3  0  0  0  0  0  0  0  0  0
    3.6685   -1.0709    0.0000 C   0  0  3  0  0  0  0  0  0  0  0  0
    3.6685   -0.2459    0.0000 C   0  0  0  0  0  0  0  0  0  0  0  0
    4.3830    0.1666    0.0000 C   0  0  3  0  0  0  0  0  0  0  0  0
    4.5205   -0.3834    0.0000 C   0  0  0  0  0  0  0  0  0  0  0  0
    4.5205   -0.9334    0.0000 C   0  0  0  0  0  0  0  0  0  0  0  0
    4.3830   -1.4834    0.0000 N   0  0  3  0  0  0  0  0  0  0  0  0
    5.0975   -1.0709    0.0000 C   0  0  0  0  0  0  0  0  0  0  0  0
    5.0975   -0.2459    0.0000 C   0  0  3  0  0  0  0  0  0  0  0  0
    5.8119    0.1666    0.0000 C   0  0  0  0  0  0  0  0  0  0  0  0
    5.8119    0.9916    0.0000 C   0  0  0  0  0  0  0  0  0  0  0  0
    2.9540   -2.3084    0.0000 C   0  0  0  0  0  0  0  0  0  0  0  0
    3.6685   -2.7209    0.0000 C   0  0  0  0  0  0  0  0  0  0  0  0
    3.6685   -3.5459    0.0000 C   0  0  0  0  0  0  0  0  0  0  0  0
    2.9540   -3.9584    0.0000 N   0  0  0  0  0  0  0  0  0  0  0  0
    2.2396   -3.5459    0.0000 C   0  0  0  0  0  0  0  0  0  0  0  0
    1.5251   -3.9584    0.0000 C   0  0  0  0  0  0  0  0  0  0  0  0
    0.8106   -3.5459    0.0000 C   0  0  0  0  0  0  0  0  0  0  0  0
    0.8106   -2.7209    0.0000 C   0  0  0  0  0  0  0  0  0  0  0  0
    1.5251   -2.3084    0.0000 C   0  0  0  0  0  0  0  0  0  0  0  0
    2.2396   -2.7209    0.0000 C   0  0  0  0  0  0  0  0  0  0  0  0
  1  2  1  0  0  0  0
  2  3  1  0  0  0  0
  2 13  1  0  0  0  0
  3  4  1  0  0  0  0
  3  8  1  0  0  0  0
  4  5  1  0  0  0  0
  5  6  1  0  0  0  0
  5 10  1  0  0  0  0
  6  7  1  0  0  0  0
  7  8  1  0  0  0  0
  8  9  1  0  0  0  0
  9 10  1  0  0  0  0
 10 11  1  0  0  0  0
 11 12  2  0  0  0  0
 13 14  2  0  0  0  0
 13 22  1  0  0  0  0
 14 15  1  0  0  0  0
 15 16  2  0  0  0  0
 16 17  1  0  0  0  0
 17 18  2  0  0  0  0
 17 22  1  0  0  0  0
 18 19  1  0  0  0  0
 19 20  2  0  0  0  0
 20 21  1  0  0  0  0
 21 22  2  0  0  0  0
M  END
$$$$

 OpenBabel12191814062D

 26 28  0  0  0  0  0  0  0  0999 V2000
    2.1434   -2.8875    0.0000 O   0  0  0  0  0  0  0  0  0  0  0  0
    1.4289   -2.4750    0.0000 C   0  0  3  0  0  0  0  0  0  0  0  0
    0.7145   -2.8875    0.0000 C   0  0  3  0  0  0  0  0  0  0  0  0
    0.7145   -3.7125    0.0000 C   0  0  0  0  0  0  0  0  0  0  0  0
    0.0000   -4.1250    0.0000 C   0  0  0  0  0  0  0  0  0  0  0  0
   -0.7145   -3.7125    0.0000 C   0  0  0  0  0  0  0  0  0  0  0  0
   -0.7145   -2.8875    0.0000 C   0  0  0  0  0  0  0  0  0  0  0  0
    0.0000   -2.4750    0.0000 N   0  0  0  0  0  0  0  0  0  0  0  0
    1.4289   -1.6500    0.0000 C   0  0  0  0  0  0  0  0  0  0  0  0
    0.7145   -1.2375    0.0000 C   0  0  0  0  0  0  0  0  0  0  0  0
    0.7145   -0.4125    0.0000 C   0  0  0  0  0  0  0  0  0  0  0  0
    1.4289    0.0000    0.0000 N   0  0  0  0  0  0  0  0  0  0  0  0
    2.1434   -0.4125    0.0000 C   0  0  0  0  0  0  0  0  0  0  0  0
    2.8579    0.0000    0.0000 C   0  0  0  0  0  0  0  0  0  0  0  0
    3.5724   -0.4125    0.0000 C   0  0  0  0  0  0  0  0  0  0  0  0
    3.5724   -1.2375    0.0000 C   0  0  0  0  0  0  0  0  0  0  0  0
    2.8579   -1.6500    0.0000 C   0  0  0  0  0  0  0  0  0  0  0  0
    2.1434   -1.2375    0.0000 C   0  0  0  0  0  0  0  0  0  0  0  0
    2.8579    0.8250    0.0000 C   0  0  0  0  0  0  0  0  0  0  0  0
    2.8579    1.6500    0.0000 F   0  0  0  0  0  0  0  0  0  0  0  0
    3.6829    0.8250    0.0000 F   0  0  0  0  0  0  0  0  0  0  0  0
    2.0329    0.8250    0.0000 F   0  0  0  0  0  0  0  0  0  0  0  0
    0.0000    0.0000    0.0000 C   0  0  0  0  0  0  0  0  0  0  0  0
   -0.7145    0.4125    0.0000 F   0  0  0  0  0  0  0  0  0  0  0  0
    0.4125    0.7145    0.0000 F   0  0  0  0  0  0  0  0  0  0  0  0
   -0.4125   -0.7145    0.0000 F   0  0  0  0  0  0  0  0  0  0  0  0
  1  2  1  0  0  0  0
  2  3  1  0  0  0  0
  2  9  1  0  0  0  0
  3  4  1  0  0  0  0
  3  8  1  0  0  0  0
  4  5  1  0  0  0  0
  5  6  1  0  0  0  0
  6  7  1  0  0  0  0
  7  8  1  0  0  0  0
  9 10  2  0  0  0  0
  9 18  1  0  0  0  0
 10 11  1  0  0  0  0
 11 12  2  0  0  0  0
 11 23  1  0  0  0  0
 12 13  1  0  0  0  0
 13 14  2  0  0  0  0
 13 18  1  0  0  0  0
 14 15  1  0  0  0  0
 14 19  1  0  0  0  0
 15 16  2  0  0  0  0
 16 17  1  0  0  0  0
 17 18  2  0  0  0  0
 19 20  1  0  0  0  0
 19 21  1  0  0  0  0
 19 22  1  0  0  0  0
 23 24  1  0  0  0  0
 23 25  1  0  0  0  0
 23 26  1  0  0  0  0
M  END
$$$$

 OpenBabel12191814062D

 23 25  0  0  0  0  0  0  0  0999 V2000
    4.6184    4.9204    0.0000 O   0  0  0  0  0  0  0  0  0  0  0  0
    5.0309    4.2059    0.0000 C   0  0  0  0  0  0  0  0  0  0  0  0
    4.3164    3.7934    0.0000 C   0  0  0  0  0  0  0  0  0  0  0  0
    4.3164    2.9684    0.0000 C   0  0  0  0  0  0  0  0  0  0  0  0
    3.6020    2.5559    0.0000 C   0  0  0  0  0  0  0  0  0  0  0  0
    3.6020    1.7309    0.0000 N   0  0  0  0  0  0  0  0  0  0  0  0
    4.3164    1.3184    0.0000 C   0  0  0  0  0  0  0  0  0  0  0  0
    4.3164    0.4934    0.0000 C   0  0  0  0  0  0  0  0  0  0  0  0
    3.6020    0.0809    0.0000 C   0  0  0  0  0  0  0  0  0  0  0  0
    2.8875    0.4934    0.0000 C   0  0  0  0  0  0  0  0  0  0  0  0
    2.8875    1.3184    0.0000 C   0  0  0  0  0  0  0  0  0  0  0  0
    5.7454    4.6184    0.0000 C   0  0  0  0  0  0  0  0  0  0  0  0
    5.7454    5.4434    0.0000 C   0  0  0  0  0  0  0  0  0  0  0  0
    6.4599    5.8559    0.0000 C   0  0  0  0  0  0  0  0  0  0  0  0
    7.1743    5.4434    0.0000 C   0  0  0  0  0  0  0  0  0  0  0  0
    7.1743    4.6184    0.0000 C   0  0  0  0  0  0  0  0  0  0  0  0
    6.4599    4.2059    0.0000 C   0  0  0  0  0  0  0  0  0  0  0  0
    5.4434    3.4914    0.0000 C   0  0  0  0  0  0  0  0  0  0  0  0
    6.2684    3.4914    0.0000 C   0  0  0  0  0  0  0  0  0  0  0  0
    6.6809    2.7770    0.0000 C   0  0  0  0  0  0  0  0  0  0  0  0
    6.2684    2.0625    0.0000 C   0  0  0  0  0  0  0  0  0  0  0  0
    5.4434    2.0625    0.0000 C   0  0  0  0  0  0  0  0  0  0  0  0
    5.0309    2.7770    0.0000 C   0  0  0  0  0  0  0  0  0  0  0  0
  1  2  1  0  0  0  0
  2  3  1  0  0  0  0
  2 12  1  0  0  0  0
  2 18  1  0  0  0  0
  3  4  1  0  0  0  0
  4  5  1  0  0  0  0
  5  6  1  0  0  0  0
  6  7  1  0  0  0  0
  6 11  1  0  0  0  0
  7  8  1  0  0  0  0
  8  9  1  0  0  0  0
  9 10  1  0  0  0  0
 10 11  1  0  0  0  0
 12 13  2  0  0  0  0
 12 17  1  0  0  0  0
 13 14  1  0  0  0  0
 14 15  2  0  0  0  0
 15 16  1  0  0  0  0
 16 17  2  0  0  0  0
 18 19  2  0  0  0  0
 18 23  1  0  0  0  0
 19 20  1  0  0  0  0
 20 21  2  0  0  0  0
 21 22  1  0  0  0  0
 22 23  2  0  0  0  0
M  END
$$$$

 OpenBabel12191814062D

 21 23  0  0  0  0  0  0  0  0999 V2000
    1.9393    2.2413    0.0000 O   0  0  0  0  0  0  0  0  0  0  0  0
    2.7643    2.2413    0.0000 C   0  0  3  0  0  0  0  0  0  0  0  0
    2.7643    1.4163    0.0000 C   0  0  0  0  0  0  0  0  0  0  0  0
    3.4788    1.0038    0.0000 C   0  0  0  0  0  0  0  0  0  0  0  0
    3.4788    0.1788    0.0000 N   0  0  0  0  0  0  0  0  0  0  0  0
    4.1462   -0.3062    0.0000 C   0  0  0  0  0  0  0  0  0  0  0  0
    3.8913   -1.0908    0.0000 C   0  0  0  0  0  0  0  0  0  0  0  0
    3.0663   -1.0908    0.0000 C   0  0  0  0  0  0  0  0  0  0  0  0
    2.8113   -0.3062    0.0000 C   0  0  0  0  0  0  0  0  0  0  0  0
    2.7643    3.0663    0.0000 C   0  0  0  0  0  0  0  0  0  0  0  0
    2.0498    3.4788    0.0000 C   0  0  0  0  0  0  0  0  0  0  0  0
    2.0498    4.3038    0.0000 C   0  0  0  0  0  0  0  0  0  0  0  0
    2.7643    4.7163    0.0000 C   0  0  0  0  0  0  0  0  0  0  0  0
    3.4788    4.3038    0.0000 C   0  0  0  0  0  0  0  0  0  0  0  0
    3.4788    3.4788    0.0000 C   0  0  0  0  0  0  0  0  0  0  0  0
    3.5893    2.2413    0.0000 C   0  0  0  0  0  0  0  0  0  0  0  0
    4.0018    2.9557    0.0000 C   0  0  0  0  0  0  0  0  0  0  0  0
    4.8268    2.9557    0.0000 C   0  0  0  0  0  0  0  0  0  0  0  0
    5.2393    2.2413    0.0000 C   0  0  0  0  0  0  0  0  0  0  0  0
    4.8268    1.5268    0.0000 C   0  0  0  0  0  0  0  0  0  0  0  0
    4.0018    1.5268    0.0000 C   0  0  0  0  0  0  0  0  0  0  0  0
  1  2  1  0  0  0  0
  2  3  1  0  0  0  0
  2 10  1  0  0  0  0
  2 16  1  0  0  0  0
  3  4  1  0  0  0  0
  4  5  1  0  0  0  0
  5  6  1  0  0  0  0
  5  9  1  0  0  0  0
  6  7  1  0  0  0  0
  7  8  1  0  0  0  0
  8  9  1  0  0  0  0
 10 11  1  0  0  0  0
 10 15  1  0  0  0  0
 11 12  1  0  0  0  0
 12 13  1  0  0  0  0
 13 14  1  0  0  0  0
 14 15  1  0  0  0  0
 16 17  2  0  0  0  0
 16 21  1  0  0  0  0
 17 18  1  0  0  0  0
 18 19  2  0  0  0  0
 19 20  1  0  0  0  0
 20 21  2  0  0  0  0
M  END
$$$$

 OpenBabel12191814062D

 37 41  0  0  0  0  0  0  0  0999 V2000
    0.0000   -2.4750    0.0000 O   0  0  0  0  0  0  0  0  0  0  0  0
    0.7145   -2.8875    0.0000 C   0  0  3  0  0  0  0  0  0  0  0  0
    0.7145   -3.7125    0.0000 C   0  0  0  0  0  0  0  0  0  0  0  0
    0.0000   -4.1250    0.0000 N   0  0  0  0  0  0  0  0  0  0  0  0
    0.0000   -4.9500    0.0000 C   0  0  0  0  0  0  0  0  0  0  0  0
   -0.7145   -5.3625    0.0000 C   0  0  0  0  0  0  0  0  0  0  0  0
   -1.4289   -4.9500    0.0000 N   0  0  0  0  0  0  0  0  0  0  0  0
   -1.4289   -4.1250    0.0000 C   0  0  0  0  0  0  0  0  0  0  0  0
   -0.7145   -3.7125    0.0000 C   0  0  0  0  0  0  0  0  0  0  0  0
   -2.1434   -5.3625    0.0000 C   0  0  0  0  0  0  0  0  0  0  0  0
   -2.1434   -6.1875    0.0000 O   0  0  0  0  0  0  0  0  0  0  0  0
   -2.8579   -4.9500    0.0000 C   0  0  0  0  0  0  0  0  0  0  0  0
   -3.5724   -5.3625    0.0000 C   0  0  0  0  0  0  0  0  0  0  0  0
   -3.5724   -6.1875    0.0000 C   0  0  0  0  0  0  0  0  0  0  0  0
   -2.8579   -6.6000    0.0000 C   0  0  0  0  0  0  0  0  0  0  0  0
   -2.8579   -7.4250    0.0000 C   0  0  0  0  0  0  0  0  0  0  0  0
   -3.5724   -7.8375    0.0000 C   0  0  0  0  0  0  0  0  0  0  0  0
   -4.2868   -7.4250    0.0000 C   0  0  0  0  0  0  0  0  0  0  0  0
   -4.2868   -6.6000    0.0000 C   0  0  0  0  0  0  0  0  0  0  0  0
   -2.8579   -4.1250    0.0000 C   0  0  0  0  0  0  0  0  0  0  0  0
   -3.5724   -3.7125    0.0000 C   0  0  0  0  0  0  0  0  0  0  0  0
   -4.2868   -4.1250    0.0000 C   0  0  0  0  0  0  0  0  0  0  0  0
   -5.0013   -3.7125    0.0000 C   0  0  0  0  0  0  0  0  0  0  0  0
   -5.0013   -2.8875    0.0000 C   0  0  0  0  0  0  0  0  0  0  0  0
   -4.2868   -2.4750    0.0000 C   0  0  0  0  0  0  0  0  0  0  0  0
   -3.5724   -2.8875    0.0000 C   0  0  0  0  0  0  0  0  0  0  0  0
    1.4289   -2.4750    0.0000 O   0  0  0  0  0  0  0  0  0  0  0  0
    1.4289   -1.6500    0.0000 C   0  0  0  0  0  0  0  0  0  0  0  0
    0.7145   -1.2375    0.0000 C   0  0  0  0  0  0  0  0  0  0  0  0
    0.7145   -0.4125    0.0000 C   0  0  0  0  0  0  0  0  0  0  0  0
    1.4289    0.0000    0.0000 C   0  0  0  0  0  0  0  0  0  0  0  0
    2.1434   -0.4125    0.0000 C   0  0  0  0  0  0  0  0  0  0  0  0
    2.8579    0.0000    0.0000 N   0  0  0  0  0  0  0  0  0  0  0  0
    3.5724   -0.4125    0.0000 C   0  0  0  0  0  0  0  0  0  0  0  0
    3.5724   -1.2375    0.0000 C   0  0  0  0  0  0  0  0  0  0  0  0
    2.8579   -1.6500    0.0000 C   0  0  0  0  0  0  0  0  0  0  0  0
    2.1434   -1.2375    0.0000 C   0  0  0  0  0  0  0  0  0  0  0  0
  1  2  1  0  0  0  0
  2  3  1  0  0  0  0
  2 27  1  0  0  0  0
  3  4  1  0  0  0  0
  4  5  1  0  0  0  0
  4  9  1  0  0  0  0
  5  6  1  0  0  0  0
  6  7  1  0  0  0  0
  7  8  1  0  0  0  0
  7 10  1  0  0  0  0
  8  9  1  0  0  0  0
 10 11  2  0  0  0  0
 10 12  1  0  0  0  0
 12 13  1  0  0  0  0
 12 20  1  0  0  0  0
 13 14  1  0  0  0  0
 14 15  2  0  0  0  0
 14 19  1  0  0  0  0
 15 16  1  0  0  0  0
 16 17  2  0  0  0  0
 17 18  1  0  0  0  0
 18 19  2  0  0  0  0
 20 21  1  0  0  0  0
 21 22  2  0  0  0  0
 21 26  1  0  0  0  0
 22 23  1  0  0  0  0
 23 24  2  0  0  0  0
 24 25  1  0  0  0  0
 25 26  2  0  0  0  0
 27 28  1  0  0  0  0
 28 29  2  0  0  0  0
 28 37  1  0  0  0  0
 29 30  1  0  0  0  0
 30 31  2  0  0  0  0
 31 32  1  0  0  0  0
 32 33  2  0  0  0  0
 32 37  1  0  0  0  0
 33 34  1  0  0  0  0
 34 35  2  0  0  0  0
 35 36  1  0  0  0  0
 36 37  2  0  0  0  0
M  END
$$$$

 OpenBabel12191814062D

 35 38  0  0  0  0  0  0  0  0999 V2000
    2.1434   -6.1875    0.0000 O   0  0  0  0  0  0  0  0  0  0  0  0
    2.1434   -5.3625    0.0000 C   0  0  3  0  0  0  0  0  0  0  0  0
    1.4289   -4.9500    0.0000 C   0  0  0  0  0  0  0  0  0  0  0  0
    0.7145   -5.3625    0.0000 N   0  0  0  0  0  0  0  0  0  0  0  0
   -0.0000   -4.9500    0.0000 C   0  0  0  0  0  0  0  0  0  0  0  0
   -0.7145   -5.3625    0.0000 C   0  0  0  0  0  0  0  0  0  0  0  0
   -0.7145   -6.1875    0.0000 C   0  0  0  0  0  0  0  0  0  0  0  0
   -1.4289   -6.6000    0.0000 C   0  0  0  0  0  0  0  0  0  0  0  0
   -2.1434   -6.1875    0.0000 C   0  0  0  0  0  0  0  0  0  0  0  0
   -2.1434   -5.3625    0.0000 C   0  0  0  0  0  0  0  0  0  0  0  0
   -1.4289   -4.9500    0.0000 C   0  0  0  0  0  0  0  0  0  0  0  0
   -0.0000   -4.1250    0.0000 C   0  0  0  0  0  0  0  0  0  0  0  0
   -0.7145   -3.7125    0.0000 C   0  0  0  0  0  0  0  0  0  0  0  0
   -0.7145   -2.8875    0.0000 C   0  0  0  0  0  0  0  0  0  0  0  0
   -0.0000   -2.4750    0.0000 C   0  0  0  0  0  0  0  0  0  0  0  0
    0.7145   -2.8875    0.0000 C   0  0  0  0  0  0  0  0  0  0  0  0
    0.7145   -3.7125    0.0000 C   0  0  0  0  0  0  0  0  0  0  0  0
    2.8579   -4.9500    0.0000 C   0  0  0  0  0  0  0  0  0  0  0  0
    3.5724   -5.3625    0.0000 O   0  0  0  0  0  0  0  0  0  0  0  0
    4.2868   -4.9500    0.0000 C   0  0  0  0  0  0  0  0  0  0  0  0
    4.2868   -4.1250    0.0000 C   0  0  0  0  0  0  0  0  0  0  0  0
    5.0013   -3.7125    0.0000 C   0  0  0  0  0  0  0  0  0  0  0  0
    5.7158   -4.1250    0.0000 C   0  0  0  0  0  0  0  0  0  0  0  0
    5.7158   -4.9500    0.0000 C   0  0  0  0  0  0  0  0  0  0  0  0
    5.0013   -5.3625    0.0000 C   0  0  0  0  0  0  0  0  0  0  0  0
    5.0013   -6.1875    0.0000 C   0  0  0  0  0  0  0  0  0  0  0  0
    5.7158   -6.6000    0.0000 O   0  0  0  0  0  0  0  0  0  0  0  0
    4.2868   -6.6000    0.0000 C   0  0  0  0  0  0  0  0  0  0  0  0
    4.2868   -7.4250    0.0000 C   0  0  0  0  0  0  0  0  0  0  0  0
    5.0013   -7.8375    0.0000 C   0  0  0  0  0  0  0  0  0  0  0  0
    5.7158   -7.4250    0.0000 C   0  0  0  0  0  0  0  0  0  0  0  0
    6.4302   -7.8375    0.0000 C   0  0  0  0  0  0  0  0  0  0  0  0
    6.4302   -8.6625    0.0000 C   0  0  0  0  0  0  0  0  0  0  0  0
    5.7158   -9.0750    0.0000 C   0  0  0  0  0  0  0  0  0  0  0  0
    5.0013   -8.6625    0.0000 C   0  0  0  0  0  0  0  0  0  0  0  0
  1  2  1  0  0  0  0
  2  3  1  0  0  0  0
  2 18  1  0  0  0  0
  3  4  1  0  0  0  0
  4  5  1  0  0  0  0
  5  6  1  0  0  0  0
  5 12  1  0  0  0  0
  6  7  2  0  0  0  0
  6 11  1  0  0  0  0
  7  8  1  0  0  0  0
  8  9  2  0  0  0  0
  9 10  1  0  0  0  0
 10 11  2  0  0  0  0
 12 13  2  0  0  0  0
 12 17  1  0  0  0  0
 13 14  1  0  0  0  0
 14 15  2  0  0  0  0
 15 16  1  0  0  0  0
 16 17  2  0  0  0  0
 18 19  1  0  0  0  0
 19 20  1  0  0  0  0
 20 21  2  0  0  0  0
 20 25  1  0  0  0  0
 21 22  1  0  0  0  0
 22 23  2  0  0  0  0
 23 24  1  0  0  0  0
 24 25  2  0  0  0  0
 25 26  1  0  0  0  0
 26 27  2  0  0  0  0
 26 28  1  0  0  0  0
 28 29  1  0  0  0  0
 29 30  1  0  0  0  0
 30 31  2  0  0  0  0
 30 35  1  0  0  0  0
 31 32  1  0  0  0  0
 32 33  2  0  0  0  0
 33 34  1  0  0  0  0
 34 35  2  0  0  0  0
M  END
$$$$

 OpenBabel12191814062D

 31 33  0  0  0  0  0  0  0  0999 V2000
    2.1434   -6.1875    0.0000 O   0  0  0  0  0  0  0  0  0  0  0  0
    2.1434   -5.3625    0.0000 C   0  0  3  0  0  0  0  0  0  0  0  0
    1.4289   -4.9500    0.0000 C   0  0  0  0  0  0  0  0  0  0  0  0
    0.7145   -5.3625    0.0000 N   0  0  0  0  0  0  0  0  0  0  0  0
   -0.0000   -4.9500    0.0000 C   0  0  0  0  0  0  0  0  0  0  0  0
   -0.7145   -5.3625    0.0000 C   0  0  0  0  0  0  0  0  0  0  0  0
   -1.4289   -4.9500    0.0000 C   0  0  0  0  0  0  0  0  0  0  0  0
   -1.4289   -4.1250    0.0000 C   0  0  0  0  0  0  0  0  0  0  0  0
   -0.7145   -3.7125    0.0000 C   0  0  0  0  0  0  0  0  0  0  0  0
   -0.0000   -4.1250    0.0000 C   0  0  0  0  0  0  0  0  0  0  0  0
   -2.1434   -3.7125    0.0000 N   0  3  0  0  0  0  0  0  0  0  0  0
   -2.1434   -2.8875    0.0000 O   0  5  0  0  0  0  0  0  0  0  0  0
   -2.8579   -4.1250    0.0000 O   0  0  0  0  0  0  0  0  0  0  0  0
    2.8579   -4.9500    0.0000 C   0  0  0  0  0  0  0  0  0  0  0  0
    3.5724   -5.3625    0.0000 O   0  0  0  0  0  0  0  0  0  0  0  0
    4.2868   -4.9500    0.0000 C   0  0  0  0  0  0  0  0  0  0  0  0
    4.2868   -4.1250    0.0000 C   0  0  0  0  0  0  0  0  0  0  0  0
    5.0013   -3.7125    0.0000 C   0  0  0  0  0  0  0  0  0  0  0  0
    5.7158   -4.1250    0.0000 C   0  0  0  0  0  0  0  0  0  0  0  0
    5.7158   -4.9500    0.0000 C   0  0  0  0  0  0  0  0  0  0  0  0
    5.0013   -5.3625    0.0000 C   0  0  0  0  0  0  0  0  0  0  0  0
    5.0013   -6.1875    0.0000 C   0  0  0  0  0  0  0  0  0  0  0  0
    5.7158   -6.6000    0.0000 O   0  0  0  0  0  0  0  0  0  0  0  0
    4.2868   -6.6000    0.0000 C   0  0  0  0  0  0  0  0  0  0  0  0
    4.2868   -7.4250    0.0000 C   0  0  0  0  0  0  0  0  0  0  0  0
    5.0013   -7.8375    0.0000 C   0  0  0  0  0  0  0  0  0  0  0  0
    5.7158   -7.4250    0.0000 C   0  0  0  0  0  0  0  0  0  0  0  0
    6.4302   -7.8375    0.0000 C   0  0  0  0  0  0  0  0  0  0  0  0
    6.4302   -8.6625    0.0000 C   0  0  0  0  0  0  0  0  0  0  0  0
    5.7158   -9.0750    0.0000 C   0  0  0  0  0  0  0  0  0  0  0  0
    5.0013   -8.6625    0.0000 C   0  0  0  0  0  0  0  0  0  0  0  0
  1  2  1  0  0  0  0
  2  3  1  0  0  0  0
  2 14  1  0  0  0  0
  3  4  1  0  0  0  0
  4  5  1  0  0  0  0
  5  6  2  0  0  0  0
  5 10  1  0  0  0  0
  6  7  1  0  0  0  0
  7  8  2  0  0  0  0
  8  9  1  0  0  0  0
  8 11  1  0  0  0  0
  9 10  2  0  0  0  0
 11 12  1  0  0  0  0
 11 13  2  0  0  0  0
 14 15  1  0  0  0  0
 15 16  1  0  0  0  0
 16 17  2  0  0  0  0
 16 21  1  0  0  0  0
 17 18  1  0  0  0  0
 18 19  2  0  0  0  0
 19 20  1  0  0  0  0
 20 21  2  0  0  0  0
 21 22  1  0  0  0  0
 22 23  2  0  0  0  0
 22 24  1  0  0  0  0
 24 25  1  0  0  0  0
 25 26  1  0  0  0  0
 26 27  2  0  0  0  0
 26 31  1  0  0  0  0
 27 28  1  0  0  0  0
 28 29  2  0  0  0  0
 29 30  1  0  0  0  0
 30 31  2  0  0  0  0
M  CHG  2  11   1  12  -1
M  END
$$$$

 OpenBabel12191814062D

 32 34  0  0  0  0  0  0  0  0999 V2000
    2.1434   -6.1875    0.0000 O   0  0  0  0  0  0  0  0  0  0  0  0
    2.1434   -5.3625    0.0000 C   0  0  3  0  0  0  0  0  0  0  0  0
    1.4289   -4.9500    0.0000 C   0  0  0  0  0  0  0  0  0  0  0  0
    0.7145   -5.3625    0.0000 N   0  0  0  0  0  0  0  0  0  0  0  0
   -0.0000   -4.9500    0.0000 C   0  0  0  0  0  0  0  0  0  0  0  0
   -0.7145   -5.3625    0.0000 C   0  0  0  0  0  0  0  0  0  0  0  0
   -1.4289   -4.9500    0.0000 C   0  0  0  0  0  0  0  0  0  0  0  0
   -1.4289   -4.1250    0.0000 C   0  0  0  0  0  0  0  0  0  0  0  0
   -0.7145   -3.7125    0.0000 C   0  0  0  0  0  0  0  0  0  0  0  0
   -0.0000   -4.1250    0.0000 C   0  0  0  0  0  0  0  0  0  0  0  0
   -2.1434   -3.7125    0.0000 C   0  0  0  0  0  0  0  0  0  0  0  0
   -2.8579   -3.3000    0.0000 F   0  0  0  0  0  0  0  0  0  0  0  0
   -2.5559   -4.4270    0.0000 F   0  0  0  0  0  0  0  0  0  0  0  0
   -1.7309   -2.9980    0.0000 F   0  0  0  0  0  0  0  0  0  0  0  0
    2.8579   -4.9500    0.0000 C   0  0  0  0  0  0  0  0  0  0  0  0
    3.5724   -5.3625    0.0000 O   0  0  0  0  0  0  0  0  0  0  0  0
    4.2868   -4.9500    0.0000 C   0  0  0  0  0  0  0  0  0  0  0  0
    4.2868   -4.1250    0.0000 C   0  0  0  0  0  0  0  0  0  0  0  0
    5.0013   -3.7125    0.0000 C   0  0  0  0  0  0  0  0  0  0  0  0
    5.7158   -4.1250    0.0000 C   0  0  0  0  0  0  0  0  0  0  0  0
    5.7158   -4.9500    0.0000 C   0  0  0  0  0  0  0  0  0  0  0  0
    5.0013   -5.3625    0.0000 C   0  0  0  0  0  0  0  0  0  0  0  0
    5.0013   -6.1875    0.0000 C   0  0  0  0  0  0  0  0  0  0  0  0
    5.7158   -6.6000    0.0000 O   0  0  0  0  0  0  0  0  0  0  0  0
    4.2868   -6.6000    0.0000 C   0  0  0  0  0  0  0  0  0  0  0  0
    4.2868   -7.4250    0.0000 C   0  0  0  0  0  0  0  0  0  0  0  0
    5.0013   -7.8375    0.0000 C   0  0  0  0  0  0  0  0  0  0  0  0
    5.7158   -7.4250    0.0000 C   0  0  0  0  0  0  0  0  0  0  0  0
    6.4302   -7.8375    0.0000 C   0  0  0  0  0  0  0  0  0  0  0  0
    6.4302   -8.6625    0.0000 C   0  0  0  0  0  0  0  0  0  0  0  0
    5.7158   -9.0750    0.0000 C   0  0  0  0  0  0  0  0  0  0  0  0
    5.0013   -8.6625    0.0000 C   0  0  0  0  0  0  0  0  0  0  0  0
  1  2  1  0  0  0  0
  2  3  1  0  0  0  0
  2 15  1  0  0  0  0
  3  4  1  0  0  0  0
  4  5  1  0  0  0  0
  5  6  2  0  0  0  0
  5 10  1  0  0  0  0
  6  7  1  0  0  0  0
  7  8  2  0  0  0  0
  8  9  1  0  0  0  0
  8 11  1  0  0  0  0
  9 10  2  0  0  0  0
 11 12  1  0  0  0  0
 11 13  1  0  0  0  0
 11 14  1  0  0  0  0
 15 16  1  0  0  0  0
 16 17  1  0  0  0  0
 17 18  2  0  0  0  0
 17 22  1  0  0  0  0
 18 19  1  0  0  0  0
 19 20  2  0  0  0  0
 20 21  1  0  0  0  0
 21 22  2  0  0  0  0
 22 23  1  0  0  0  0
 23 24  2  0  0  0  0
 23 25  1  0  0  0  0
 25 26  1  0  0  0  0
 26 27  1  0  0  0  0
 27 28  2  0  0  0  0
 27 32  1  0  0  0  0
 28 29  1  0  0  0  0
 29 30  2  0  0  0  0
 30 31  1  0  0  0  0
 31 32  2  0  0  0  0
M  END
$$$$

 OpenBabel12191814062D

 28 30  0  0  0  0  0  0  0  0999 V2000
    2.1434   -6.1875    0.0000 O   0  0  0  0  0  0  0  0  0  0  0  0
    2.1434   -5.3625    0.0000 C   0  0  3  0  0  0  0  0  0  0  0  0
    1.4289   -4.9500    0.0000 C   0  0  0  0  0  0  0  0  0  0  0  0
    0.7145   -5.3625    0.0000 N   0  0  0  0  0  0  0  0  0  0  0  0
   -0.0000   -4.9500    0.0000 C   0  0  0  0  0  0  0  0  0  0  0  0
   -0.7145   -5.3625    0.0000 C   0  0  0  0  0  0  0  0  0  0  0  0
   -1.4289   -4.9500    0.0000 C   0  0  0  0  0  0  0  0  0  0  0  0
   -1.4289   -4.1250    0.0000 C   0  0  0  0  0  0  0  0  0  0  0  0
   -0.7145   -3.7125    0.0000 C   0  0  0  0  0  0  0  0  0  0  0  0
   -0.0000   -4.1250    0.0000 C   0  0  0  0  0  0  0  0  0  0  0  0
    2.8579   -4.9500    0.0000 C   0  0  0  0  0  0  0  0  0  0  0  0
    3.5724   -5.3625    0.0000 O   0  0  0  0  0  0  0  0  0  0  0  0
    4.2868   -4.9500    0.0000 C   0  0  0  0  0  0  0  0  0  0  0  0
    4.2868   -4.1250    0.0000 C   0  0  0  0  0  0  0  0  0  0  0  0
    5.0013   -3.7125    0.0000 C   0  0  0  0  0  0  0  0  0  0  0  0
    5.7158   -4.1250    0.0000 C   0  0  0  0  0  0  0  0  0  0  0  0
    5.7158   -4.9500    0.0000 C   0  0  0  0  0  0  0  0  0  0  0  0
    5.0013   -5.3625    0.0000 C   0  0  0  0  0  0  0  0  0  0  0  0
    5.0013   -6.1875    0.0000 C   0  0  0  0  0  0  0  0  0  0  0  0
    5.7158   -6.6000    0.0000 O   0  0  0  0  0  0  0  0  0  0  0  0
    4.2868   -6.6000    0.0000 C   0  0  0  0  0  0  0  0  0  0  0  0
    4.2868   -7.4250    0.0000 C   0  0  0  0  0  0  0  0  0  0  0  0
    5.0013   -7.8375    0.0000 C   0  0  0  0  0  0  0  0  0  0  0  0
    5.7158   -7.4250    0.0000 C   0  0  0  0  0  0  0  0  0  0  0  0
    6.4302   -7.8375    0.0000 C   0  0  0  0  0  0  0  0  0  0  0  0
    6.4302   -8.6625    0.0000 C   0  0  0  0  0  0  0  0  0  0  0  0
    5.7158   -9.0750    0.0000 C   0  0  0  0  0  0  0  0  0  0  0  0
    5.0013   -8.6625    0.0000 C   0  0  0  0  0  0  0  0  0  0  0  0
  1  2  1  0  0  0  0
  2  3  1  0  0  0  0
  2 11  1  0  0  0  0
  3  4  1  0  0  0  0
  4  5  1  0  0  0  0
  5  6  1  0  0  0  0
  5 10  1  0  0  0  0
  6  7  1  0  0  0  0
  7  8  1  0  0  0  0
  8  9  1  0  0  0  0
  9 10  1  0  0  0  0
 11 12  1  0  0  0  0
 12 13  1  0  0  0  0
 13 14  2  0  0  0  0
 13 18  1  0  0  0  0
 14 15  1  0  0  0  0
 15 16  2  0  0  0  0
 16 17  1  0  0  0  0
 17 18  2  0  0  0  0
 18 19  1  0  0  0  0
 19 20  2  0  0  0  0
 19 21  1  0  0  0  0
 21 22  1  0  0  0  0
 22 23  1  0  0  0  0
 23 24  2  0  0  0  0
 23 28  1  0  0  0  0
 24 25  1  0  0  0  0
 25 26  2  0  0  0  0
 26 27  1  0  0  0  0
 27 28  2  0  0  0  0
M  END
$$$$

 OpenBabel12191814062D

 28 30  0  0  0  0  0  0  0  0999 V2000
    2.1434   -6.1875    0.0000 O   0  0  0  0  0  0  0  0  0  0  0  0
    2.1434   -5.3625    0.0000 C   0  0  3  0  0  0  0  0  0  0  0  0
    1.4289   -4.9500    0.0000 C   0  0  0  0  0  0  0  0  0  0  0  0
    0.7145   -5.3625    0.0000 N   0  0  0  0  0  0  0  0  0  0  0  0
   -0.0000   -4.9500    0.0000 C   0  0  0  0  0  0  0  0  0  0  0  0
   -0.7145   -5.3625    0.0000 C   0  0  0  0  0  0  0  0  0  0  0  0
   -1.4289   -4.9500    0.0000 C   0  0  0  0  0  0  0  0  0  0  0  0
   -1.4289   -4.1250    0.0000 C   0  0  0  0  0  0  0  0  0  0  0  0
   -0.7145   -3.7125    0.0000 C   0  0  0  0  0  0  0  0  0  0  0  0
   -0.0000   -4.1250    0.0000 C   0  0  0  0  0  0  0  0  0  0  0  0
    2.8579   -4.9500    0.0000 C   0  0  0  0  0  0  0  0  0  0  0  0
    3.5724   -5.3625    0.0000 O   0  0  0  0  0  0  0  0  0  0  0  0
    4.2868   -4.9500    0.0000 C   0  0  0  0  0  0  0  0  0  0  0  0
    4.2868   -4.1250    0.0000 C   0  0  0  0  0  0  0  0  0  0  0  0
    5.0013   -3.7125    0.0000 C   0  0  0  0  0  0  0  0  0  0  0  0
    5.7158   -4.1250    0.0000 C   0  0  0  0  0  0  0  0  0  0  0  0
    5.7158   -4.9500    0.0000 C   0  0  0  0  0  0  0  0  0  0  0  0
    5.0013   -5.3625    0.0000 C   0  0  0  0  0  0  0  0  0  0  0  0
    5.0013   -6.1875    0.0000 C   0  0  0  0  0  0  0  0  0  0  0  0
    5.7158   -6.6000    0.0000 O   0  0  0  0  0  0  0  0  0  0  0  0
    4.2868   -6.6000    0.0000 C   0  0  0  0  0  0  0  0  0  0  0  0
    4.2868   -7.4250    0.0000 C   0  0  0  0  0  0  0  0  0  0  0  0
    5.0013   -7.8375    0.0000 C   0  0  0  0  0  0  0  0  0  0  0  0
    5.7158   -7.4250    0.0000 C   0  0  0  0  0  0  0  0  0  0  0  0
    6.4302   -7.8375    0.0000 C   0  0  0  0  0  0  0  0  0  0  0  0
    6.4302   -8.6625    0.0000 C   0  0  0  0  0  0  0  0  0  0  0  0
    5.7158   -9.0750    0.0000 C   0  0  0  0  0  0  0  0  0  0  0  0
    5.0013   -8.6625    0.0000 C   0  0  0  0  0  0  0  0  0  0  0  0
  1  2  1  0  0  0  0
  2  3  1  0  0  0  0
  2 11  1  0  0  0  0
  3  4  1  0  0  0  0
  4  5  1  0  0  0  0
  5  6  2  0  0  0  0
  5 10  1  0  0  0  0
  6  7  1  0  0  0  0
  7  8  2  0  0  0  0
  8  9  1  0  0  0  0
  9 10  2  0  0  0  0
 11 12  1  0  0  0  0
 12 13  1  0  0  0  0
 13 14  2  0  0  0  0
 13 18  1  0  0  0  0
 14 15  1  0  0  0  0
 15 16  2  0  0  0  0
 16 17  1  0  0  0  0
 17 18  2  0  0  0  0
 18 19  1  0  0  0  0
 19 20  2  0  0  0  0
 19 21  1  0  0  0  0
 21 22  1  0  0  0  0
 22 23  1  0  0  0  0
 23 24  2  0  0  0  0
 23 28  1  0  0  0  0
 24 25  1  0  0  0  0
 25 26  2  0  0  0  0
 26 27  1  0  0  0  0
 27 28  2  0  0  0  0
M  END
$$$$

 OpenBabel12191814062D

 28 30  0  0  0  0  0  0  0  0999 V2000
    2.1434   -6.1875    0.0000 O   0  0  0  0  0  0  0  0  0  0  0  0
    2.1434   -5.3625    0.0000 C   0  0  3  0  0  0  0  0  0  0  0  0
    1.4289   -4.9500    0.0000 C   0  0  0  0  0  0  0  0  0  0  0  0
    0.7145   -5.3625    0.0000 N   0  0  0  0  0  0  0  0  0  0  0  0
   -0.0000   -4.9500    0.0000 C   0  0  0  0  0  0  0  0  0  0  0  0
   -0.7145   -5.3625    0.0000 C   0  0  0  0  0  0  0  0  0  0  0  0
   -1.4289   -4.9500    0.0000 C   0  0  0  0  0  0  0  0  0  0  0  0
   -1.4289   -4.1250    0.0000 C   0  0  0  0  0  0  0  0  0  0  0  0
   -0.7145   -3.7125    0.0000 C   0  0  0  0  0  0  0  0  0  0  0  0
   -0.0000   -4.1250    0.0000 C   0  0  0  0  0  0  0  0  0  0  0  0
    2.8579   -4.9500    0.0000 C   0  0  0  0  0  0  0  0  0  0  0  0
    3.5724   -5.3625    0.0000 O   0  0  0  0  0  0  0  0  0  0  0  0
    4.2868   -4.9500    0.0000 C   0  0  0  0  0  0  0  0  0  0  0  0
    4.2868   -4.1250    0.0000 C   0  0  0  0  0  0  0  0  0  0  0  0
    5.0013   -3.7125    0.0000 C   0  0  0  0  0  0  0  0  0  0  0  0
    5.7158   -4.1250    0.0000 C   0  0  0  0  0  0  0  0  0  0  0  0
    5.7158   -4.9500    0.0000 C   0  0  0  0  0  0  0  0  0  0  0  0
    5.0013   -5.3625    0.0000 C   0  0  0  0  0  0  0  0  0  0  0  0
    5.0013   -6.1875    0.0000 C   0  0  0  0  0  0  0  0  0  0  0  0
    5.7158   -6.6000    0.0000 O   0  0  0  0  0  0  0  0  0  0  0  0
    4.2868   -6.6000    0.0000 C   0  0  0  0  0  0  0  0  0  0  0  0
    4.2868   -7.4250    0.0000 C   0  0  0  0  0  0  0  0  0  0  0  0
    5.0013   -7.8375    0.0000 C   0  0  0  0  0  0  0  0  0  0  0  0
    5.7158   -7.4250    0.0000 C   0  0  0  0  0  0  0  0  0  0  0  0
    6.4302   -7.8375    0.0000 C   0  0  0  0  0  0  0  0  0  0  0  0
    6.4302   -8.6625    0.0000 C   0  0  0  0  0  0  0  0  0  0  0  0
    5.7158   -9.0750    0.0000 C   0  0  0  0  0  0  0  0  0  0  0  0
    5.0013   -8.6625    0.0000 C   0  0  0  0  0  0  0  0  0  0  0  0
  1  2  1  0  0  0  0
  2  3  1  0  0  0  0
  2 11  1  0  0  0  0
  3  4  1  0  0  0  0
  4  5  1  0  0  0  0
  5  6  1  0  0  0  0
  5 10  1  0  0  0  0
  6  7  1  0  0  0  0
  7  8  1  0  0  0  0
  8  9  1  0  0  0  0
  9 10  1  0  0  0  0
 11 12  1  0  0  0  0
 12 13  1  0  0  0  0
 13 14  2  0  0  0  0
 13 18  1  0  0  0  0
 14 15  1  0  0  0  0
 15 16  2  0  0  0  0
 16 17  1  0  0  0  0
 17 18  2  0  0  0  0
 18 19  1  0  0  0  0
 19 20  2  0  0  0  0
 19 21  1  0  0  0  0
 21 22  1  0  0  0  0
 22 23  1  0  0  0  0
 23 24  2  0  0  0  0
 23 28  1  0  0  0  0
 24 25  1  0  0  0  0
 25 26  2  0  0  0  0
 26 27  1  0  0  0  0
 27 28  2  0  0  0  0
M  END
$$$$

 OpenBabel12191814062D

 28 30  0  0  0  0  0  0  0  0999 V2000
    2.1434   -6.1875    0.0000 O   0  0  0  0  0  0  0  0  0  0  0  0
    2.1434   -5.3625    0.0000 C   0  0  3  0  0  0  0  0  0  0  0  0
    1.4289   -4.9500    0.0000 C   0  0  0  0  0  0  0  0  0  0  0  0
    0.7145   -5.3625    0.0000 N   0  0  0  0  0  0  0  0  0  0  0  0
   -0.0000   -4.9500    0.0000 C   0  0  0  0  0  0  0  0  0  0  0  0
   -0.7145   -5.3625    0.0000 C   0  0  0  0  0  0  0  0  0  0  0  0
   -1.4289   -4.9500    0.0000 C   0  0  0  0  0  0  0  0  0  0  0  0
   -1.4289   -4.1250    0.0000 C   0  0  0  0  0  0  0  0  0  0  0  0
   -0.7145   -3.7125    0.0000 C   0  0  0  0  0  0  0  0  0  0  0  0
   -0.0000   -4.1250    0.0000 C   0  0  0  0  0  0  0  0  0  0  0  0
    2.8579   -4.9500    0.0000 C   0  0  0  0  0  0  0  0  0  0  0  0
    3.5724   -5.3625    0.0000 O   0  0  0  0  0  0  0  0  0  0  0  0
    4.2868   -4.9500    0.0000 C   0  0  0  0  0  0  0  0  0  0  0  0
    4.2868   -4.1250    0.0000 C   0  0  0  0  0  0  0  0  0  0  0  0
    5.0013   -3.7125    0.0000 C   0  0  0  0  0  0  0  0  0  0  0  0
    5.7158   -4.1250    0.0000 C   0  0  0  0  0  0  0  0  0  0  0  0
    5.7158   -4.9500    0.0000 C   0  0  0  0  0  0  0  0  0  0  0  0
    5.0013   -5.3625    0.0000 C   0  0  0  0  0  0  0  0  0  0  0  0
    5.0013   -6.1875    0.0000 C   0  0  0  0  0  0  0  0  0  0  0  0
    5.7158   -6.6000    0.0000 O   0  0  0  0  0  0  0  0  0  0  0  0
    4.2868   -6.6000    0.0000 C   0  0  0  0  0  0  0  0  0  0  0  0
    4.2868   -7.4250    0.0000 C   0  0  0  0  0  0  0  0  0  0  0  0
    5.0013   -7.8375    0.0000 C   0  0  0  0  0  0  0  0  0  0  0  0
    5.7158   -7.4250    0.0000 C   0  0  0  0  0  0  0  0  0  0  0  0
    6.4302   -7.8375    0.0000 C   0  0  0  0  0  0  0  0  0  0  0  0
    6.4302   -8.6625    0.0000 C   0  0  0  0  0  0  0  0  0  0  0  0
    5.7158   -9.0750    0.0000 C   0  0  0  0  0  0  0  0  0  0  0  0
    5.0013   -8.6625    0.0000 C   0  0  0  0  0  0  0  0  0  0  0  0
  1  2  1  0  0  0  0
  2  3  1  0  0  0  0
  2 11  1  0  0  0  0
  3  4  1  0  0  0  0
  4  5  1  0  0  0  0
  5  6  2  0  0  0  0
  5 10  1  0  0  0  0
  6  7  1  0  0  0  0
  7  8  2  0  0  0  0
  8  9  1  0  0  0  0
  9 10  2  0  0  0  0
 11 12  1  0  0  0  0
 12 13  1  0  0  0  0
 13 14  2  0  0  0  0
 13 18  1  0  0  0  0
 14 15  1  0  0  0  0
 15 16  2  0  0  0  0
 16 17  1  0  0  0  0
 17 18  2  0  0  0  0
 18 19  1  0  0  0  0
 19 20  2  0  0  0  0
 19 21  1  0  0  0  0
 21 22  1  0  0  0  0
 22 23  1  0  0  0  0
 23 24  2  0  0  0  0
 23 28  1  0  0  0  0
 24 25  1  0  0  0  0
 25 26  2  0  0  0  0
 26 27  1  0  0  0  0
 27 28  2  0  0  0  0
M  END
$$$$

 OpenBabel12191814062D

 40 44  0  0  0  0  0  0  0  0999 V2000
    2.3747    3.6320    0.0000 O   0  0  0  0  0  0  0  0  0  0  0  0
    3.0892    4.0445    0.0000 C   0  0  3  0  0  0  0  0  0  0  0  0
    3.0892    4.8695    0.0000 C   0  0  0  0  0  0  0  0  0  0  0  0
    2.3747    5.2820    0.0000 N   0  0  0  0  0  0  0  0  0  0  0  0
    2.3747    6.1070    0.0000 C   0  0  0  0  0  0  0  0  0  0  0  0
    1.6603    6.5195    0.0000 N   0  0  0  0  0  0  0  0  0  0  0  0
    1.6603    7.3445    0.0000 C   0  0  0  0  0  0  0  0  0  0  0  0
    0.9458    7.7570    0.0000 N   0  0  0  0  0  0  0  0  0  0  0  0
    0.9458    8.5820    0.0000 C   0  0  0  0  0  0  0  0  0  0  0  0
    0.2313    8.9945    0.0000 C   0  0  0  0  0  0  0  0  0  0  0  0
    0.2313    9.8195    0.0000 C   0  0  0  0  0  0  0  0  0  0  0  0
    2.3747    7.7570    0.0000 N   0  0  0  0  0  0  0  0  0  0  0  0
    3.0892    7.3445    0.0000 C   0  0  0  0  0  0  0  0  0  0  0  0
    3.8037    7.7570    0.0000 N   0  0  0  0  0  0  0  0  0  0  0  0
    4.5181    7.3445    0.0000 C   0  0  0  0  0  0  0  0  0  0  0  0
    5.2326    7.7570    0.0000 C   0  0  0  0  0  0  0  0  0  0  0  0
    5.9471    7.3445    0.0000 C   0  0  0  0  0  0  0  0  0  0  0  0
    3.0892    6.5195    0.0000 N   0  0  0  0  0  0  0  0  0  0  0  0
    3.8037    3.6320    0.0000 C   0  0  0  0  0  0  0  0  0  0  0  0
    3.8037    2.8070    0.0000 N   0  0  0  0  0  0  0  0  0  0  0  0
    4.5181    2.3945    0.0000 C   0  0  0  0  0  0  0  0  0  0  0  0
    4.5181    1.5695    0.0000 C   0  0  0  0  0  0  0  0  0  0  0  0
    3.8037    1.1570    0.0000 N   0  0  3  0  0  0  0  0  0  0  0  0
    3.0892    1.5695    0.0000 C   0  0  0  0  0  0  0  0  0  0  0  0
    3.0892    2.3945    0.0000 C   0  0  0  0  0  0  0  0  0  0  0  0
    3.8037    0.3320    0.0000 C   0  0  0  0  0  0  0  0  0  0  0  0
    4.5470   -0.0260    0.0000 C   0  0  0  0  0  0  0  0  0  0  0  0
    5.1517    0.5352    0.0000 C   0  0  0  0  0  0  0  0  0  0  0  0
    5.9401    0.2920    0.0000 C   0  0  0  0  0  0  0  0  0  0  0  0
    6.1237   -0.5123    0.0000 C   0  0  0  0  0  0  0  0  0  0  0  0
    5.5189   -1.0735    0.0000 C   0  0  0  0  0  0  0  0  0  0  0  0
    4.7305   -0.8303    0.0000 C   0  0  0  0  0  0  0  0  0  0  0  0
    4.2162   -1.4753    0.0000 C   0  0  0  0  0  0  0  0  0  0  0  0
    3.3912   -1.4753    0.0000 C   0  0  0  0  0  0  0  0  0  0  0  0
    2.8768   -0.8303    0.0000 C   0  0  0  0  0  0  0  0  0  0  0  0
    2.0884   -1.0735    0.0000 C   0  0  0  0  0  0  0  0  0  0  0  0
    1.4837   -0.5123    0.0000 C   0  0  0  0  0  0  0  0  0  0  0  0
    1.6673    0.2920    0.0000 C   0  0  0  0  0  0  0  0  0  0  0  0
    2.4556    0.5352    0.0000 C   0  0  0  0  0  0  0  0  0  0  0  0
    3.0604   -0.0260    0.0000 C   0  0  0  0  0  0  0  0  0  0  0  0
  1  2  1  0  0  0  0
  2  3  1  0  0  0  0
  2 19  1  0  0  0  0
  3  4  1  0  0  0  0
  4  5  1  0  0  0  0
  5  6  2  0  0  0  0
  5 18  1  0  0  0  0
  6  7  1  0  0  0  0
  7  8  1  0  0  0  0
  7 12  2  0  0  0  0
  8  9  1  0  0  0  0
  9 10  1  0  0  0  0
 10 11  2  0  0  0  0
 12 13  1  0  0  0  0
 13 14  1  0  0  0  0
 13 18  2  0  0  0  0
 14 15  1  0  0  0  0
 15 16  1  0  0  0  0
 16 17  2  0  0  0  0
 19 20  1  0  0  0  0
 20 21  1  0  0  0  0
 20 25  1  0  0  0  0
 21 22  1  0  0  0  0
 22 23  1  0  0  0  0
 23 24  1  0  0  0  0
 23 26  1  0  0  0  0
 24 25  1  0  0  0  0
 26 27  1  0  0  0  0
 26 40  1  0  0  0  0
 27 28  2  0  0  0  0
 27 32  1  0  0  0  0
 28 29  1  0  0  0  0
 29 30  2  0  0  0  0
 30 31  1  0  0  0  0
 31 32  2  0  0  0  0
 32 33  1  0  0  0  0
 33 34  1  0  0  0  0
 34 35  1  0  0  0  0
 35 36  2  0  0  0  0
 35 40  1  0  0  0  0
 36 37  1  0  0  0  0
 37 38  2  0  0  0  0
 38 39  1  0  0  0  0
 39 40  2  0  0  0  0
M  END
$$$$

 OpenBabel12191814062D

 36 39  0  0  0  0  0  0  0  0999 V2000
    4.2868   -7.4250    0.0000 O   0  0  0  0  0  0  0  0  0  0  0  0
    4.2868   -6.6000    0.0000 C   0  0  3  0  0  0  0  0  0  0  0  0
    3.5724   -6.1875    0.0000 C   0  0  0  0  0  0  0  0  0  0  0  0
    2.8579   -6.6000    0.0000 N   0  0  0  0  0  0  0  0  0  0  0  0
    2.1434   -6.1875    0.0000 C   0  0  0  0  0  0  0  0  0  0  0  0
    1.4289   -6.6000    0.0000 C   0  0  0  0  0  0  0  0  0  0  0  0
    0.7145   -6.1875    0.0000 C   0  0  0  0  0  0  0  0  0  0  0  0
   -0.0000   -6.6000    0.0000 C   0  0  0  0  0  0  0  0  0  0  0  0
   -0.7145   -6.1875    0.0000 C   0  0  0  0  0  0  0  0  0  0  0  0
   -0.7145   -5.3625    0.0000 C   0  0  0  0  0  0  0  0  0  0  0  0
   -0.0000   -4.9500    0.0000 C   0  0  0  0  0  0  0  0  0  0  0  0
    0.7145   -5.3625    0.0000 C   0  0  0  0  0  0  0  0  0  0  0  0
    1.4289   -7.4250    0.0000 C   0  0  0  0  0  0  0  0  0  0  0  0
    2.1434   -7.8375    0.0000 C   0  0  0  0  0  0  0  0  0  0  0  0
    2.1434   -8.6625    0.0000 C   0  0  0  0  0  0  0  0  0  0  0  0
    1.4289   -9.0750    0.0000 C   0  0  0  0  0  0  0  0  0  0  0  0
    0.7145   -8.6625    0.0000 C   0  0  0  0  0  0  0  0  0  0  0  0
    0.7145   -7.8375    0.0000 C   0  0  0  0  0  0  0  0  0  0  0  0
    5.0013   -6.1875    0.0000 C   0  0  0  0  0  0  0  0  0  0  0  0
    5.7158   -6.6000    0.0000 O   0  0  0  0  0  0  0  0  0  0  0  0
    6.4302   -6.1875    0.0000 C   0  0  0  0  0  0  0  0  0  0  0  0
    6.4302   -5.3625    0.0000 C   0  0  0  0  0  0  0  0  0  0  0  0
    7.1447   -4.9500    0.0000 C   0  0  0  0  0  0  0  0  0  0  0  0
    7.8592   -5.3625    0.0000 C   0  0  0  0  0  0  0  0  0  0  0  0
    7.8592   -6.1875    0.0000 C   0  0  0  0  0  0  0  0  0  0  0  0
    7.1447   -6.6000    0.0000 C   0  0  0  0  0  0  0  0  0  0  0  0
    7.1447   -7.4250    0.0000 C   0  0  0  0  0  0  0  0  0  0  0  0
    7.8592   -7.8375    0.0000 O   0  0  0  0  0  0  0  0  0  0  0  0
    6.4302   -7.8375    0.0000 C   0  0  0  0  0  0  0  0  0  0  0  0
    6.4302   -8.6625    0.0000 C   0  0  0  0  0  0  0  0  0  0  0  0
    7.1447   -9.0750    0.0000 C   0  0  0  0  0  0  0  0  0  0  0  0
    7.8592   -8.6625    0.0000 C   0  0  0  0  0  0  0  0  0  0  0  0
    8.5737   -9.0750    0.0000 C   0  0  0  0  0  0  0  0  0  0  0  0
    8.5737   -9.9000    0.0000 C   0  0  0  0  0  0  0  0  0  0  0  0
    7.8592  -10.3125    0.0000 C   0  0  0  0  0  0  0  0  0  0  0  0
    7.1447   -9.9000    0.0000 C   0  0  0  0  0  0  0  0  0  0  0  0
  1  2  1  0  0  0  0
  2  3  1  0  0  0  0
  2 19  1  0  0  0  0
  3  4  1  0  0  0  0
  4  5  1  0  0  0  0
  5  6  1  0  0  0  0
  6  7  1  0  0  0  0
  6 13  1  0  0  0  0
  7  8  2  0  0  0  0
  7 12  1  0  0  0  0
  8  9  1  0  0  0  0
  9 10  2  0  0  0  0
 10 11  1  0  0  0  0
 11 12  2  0  0  0  0
 13 14  2  0  0  0  0
 13 18  1  0  0  0  0
 14 15  1  0  0  0  0
 15 16  2  0  0  0  0
 16 17  1  0  0  0  0
 17 18  2  0  0  0  0
 19 20  1  0  0  0  0
 20 21  1  0  0  0  0
 21 22  2  0  0  0  0
 21 26  1  0  0  0  0
 22 23  1  0  0  0  0
 23 24  2  0  0  0  0
 24 25  1  0  0  0  0
 25 26  2  0  0  0  0
 26 27  1  0  0  0  0
 27 28  2  0  0  0  0
 27 29  1  0  0  0  0
 29 30  1  0  0  0  0
 30 31  1  0  0  0  0
 31 32  2  0  0  0  0
 31 36  1  0  0  0  0
 32 33  1  0  0  0  0
 33 34  2  0  0  0  0
 34 35  1  0  0  0  0
 35 36  2  0  0  0  0
M  END
$$$$

 OpenBabel12191814062D

 29 31  0  0  0  0  0  0  0  0999 V2000
    2.1434   -6.1875    0.0000 O   0  0  0  0  0  0  0  0  0  0  0  0
    2.1434   -5.3625    0.0000 C   0  0  3  0  0  0  0  0  0  0  0  0
    1.4289   -4.9500    0.0000 C   0  0  0  0  0  0  0  0  0  0  0  0
    0.7145   -5.3625    0.0000 N   0  0  0  0  0  0  0  0  0  0  0  0
   -0.0000   -4.9500    0.0000 C   0  0  0  0  0  0  0  0  0  0  0  0
   -0.7145   -5.3625    0.0000 C   0  0  0  0  0  0  0  0  0  0  0  0
   -0.7145   -6.1875    0.0000 C   0  0  0  0  0  0  0  0  0  0  0  0
   -1.4289   -6.6000    0.0000 C   0  0  0  0  0  0  0  0  0  0  0  0
   -2.1434   -6.1875    0.0000 C   0  0  0  0  0  0  0  0  0  0  0  0
   -2.1434   -5.3625    0.0000 C   0  0  0  0  0  0  0  0  0  0  0  0
   -1.4289   -4.9500    0.0000 C   0  0  0  0  0  0  0  0  0  0  0  0
    2.8579   -4.9500    0.0000 C   0  0  0  0  0  0  0  0  0  0  0  0
    3.5724   -5.3625    0.0000 O   0  0  0  0  0  0  0  0  0  0  0  0
    4.2868   -4.9500    0.0000 C   0  0  0  0  0  0  0  0  0  0  0  0
    4.2868   -4.1250    0.0000 C   0  0  0  0  0  0  0  0  0  0  0  0
    5.0013   -3.7125    0.0000 C   0  0  0  0  0  0  0  0  0  0  0  0
    5.7158   -4.1250    0.0000 C   0  0  0  0  0  0  0  0  0  0  0  0
    5.7158   -4.9500    0.0000 C   0  0  0  0  0  0  0  0  0  0  0  0
    5.0013   -5.3625    0.0000 C   0  0  0  0  0  0  0  0  0  0  0  0
    5.0013   -6.1875    0.0000 C   0  0  0  0  0  0  0  0  0  0  0  0
    5.7158   -6.6000    0.0000 O   0  0  0  0  0  0  0  0  0  0  0  0
    4.2868   -6.6000    0.0000 C   0  0  0  0  0  0  0  0  0  0  0  0
    4.2868   -7.4250    0.0000 C   0  0  0  0  0  0  0  0  0  0  0  0
    5.0013   -7.8375    0.0000 C   0  0  0  0  0  0  0  0  0  0  0  0
    5.7158   -7.4250    0.0000 C   0  0  0  0  0  0  0  0  0  0  0  0
    6.4302   -7.8375    0.0000 C   0  0  0  0  0  0  0  0  0  0  0  0
    6.4302   -8.6625    0.0000 C   0  0  0  0  0  0  0  0  0  0  0  0
    5.7158   -9.0750    0.0000 C   0  0  0  0  0  0  0  0  0  0  0  0
    5.0013   -8.6625    0.0000 C   0  0  0  0  0  0  0  0  0  0  0  0
  1  2  1  0  0  0  0
  2  3  1  0  0  0  0
  2 12  1  0  0  0  0
  3  4  1  0  0  0  0
  4  5  1  0  0  0  0
  5  6  1  0  0  0  0
  6  7  2  0  0  0  0
  6 11  1  0  0  0  0
  7  8  1  0  0  0  0
  8  9  2  0  0  0  0
  9 10  1  0  0  0  0
 10 11  2  0  0  0  0
 12 13  1  0  0  0  0
 13 14  1  0  0  0  0
 14 15  2  0  0  0  0
 14 19  1  0  0  0  0
 15 16  1  0  0  0  0
 16 17  2  0  0  0  0
 17 18  1  0  0  0  0
 18 19  2  0  0  0  0
 19 20  1  0  0  0  0
 20 21  2  0  0  0  0
 20 22  1  0  0  0  0
 22 23  1  0  0  0  0
 23 24  1  0  0  0  0
 24 25  2  0  0  0  0
 24 29  1  0  0  0  0
 25 26  1  0  0  0  0
 26 27  2  0  0  0  0
 27 28  1  0  0  0  0
 28 29  2  0  0  0  0
M  END
$$$$

 OpenBabel12191814062D

 37 40  0  0  0  0  0  0  0  0999 V2000
   -2.8579   -5.7750    0.0000 O   0  0  0  0  0  0  0  0  0  0  0  0
   -2.8579   -6.6000    0.0000 C   0  0  3  0  0  0  0  0  0  0  0  0
   -3.5724   -7.0125    0.0000 C   0  0  0  0  0  0  0  0  0  0  0  0
   -4.2868   -6.6000    0.0000 N   0  0  0  0  0  0  0  0  0  0  0  0
   -5.0013   -7.0125    0.0000 C   0  0  0  0  0  0  0  0  0  0  0  0
   -5.7158   -6.6000    0.0000 C   0  0  0  0  0  0  0  0  0  0  0  0
   -6.4302   -7.0125    0.0000 C   0  0  0  0  0  0  0  0  0  0  0  0
   -7.1447   -6.6000    0.0000 C   0  0  0  0  0  0  0  0  0  0  0  0
   -7.8592   -7.0125    0.0000 C   0  0  0  0  0  0  0  0  0  0  0  0
   -8.5737   -6.6000    0.0000 C   0  0  0  0  0  0  0  0  0  0  0  0
   -8.5737   -5.7750    0.0000 C   0  0  0  0  0  0  0  0  0  0  0  0
   -7.8592   -5.3625    0.0000 C   0  0  0  0  0  0  0  0  0  0  0  0
   -7.1447   -5.7750    0.0000 C   0  0  0  0  0  0  0  0  0  0  0  0
   -6.4302   -7.8375    0.0000 C   0  0  0  0  0  0  0  0  0  0  0  0
   -5.7158   -8.2500    0.0000 C   0  0  0  0  0  0  0  0  0  0  0  0
   -5.7158   -9.0750    0.0000 C   0  0  0  0  0  0  0  0  0  0  0  0
   -6.4302   -9.4875    0.0000 C   0  0  0  0  0  0  0  0  0  0  0  0
   -7.1447   -9.0750    0.0000 C   0  0  0  0  0  0  0  0  0  0  0  0
   -7.1447   -8.2500    0.0000 C   0  0  0  0  0  0  0  0  0  0  0  0
   -2.1434   -7.0125    0.0000 C   0  0  0  0  0  0  0  0  0  0  0  0
   -1.4289   -6.6000    0.0000 O   0  0  0  0  0  0  0  0  0  0  0  0
   -0.7145   -7.0125    0.0000 C   0  0  0  0  0  0  0  0  0  0  0  0
    0.0000   -6.6000    0.0000 C   0  0  0  0  0  0  0  0  0  0  0  0
    0.7145   -7.0125    0.0000 C   0  0  0  0  0  0  0  0  0  0  0  0
    0.7145   -7.8375    0.0000 C   0  0  0  0  0  0  0  0  0  0  0  0
    0.0000   -8.2500    0.0000 C   0  0  0  0  0  0  0  0  0  0  0  0
   -0.7145   -7.8375    0.0000 C   0  0  0  0  0  0  0  0  0  0  0  0
    1.4289   -8.2500    0.0000 C   0  0  0  0  0  0  0  0  0  0  0  0
    2.1434   -7.8375    0.0000 O   0  0  0  0  0  0  0  0  0  0  0  0
    1.4289   -9.0750    0.0000 C   0  0  0  0  0  0  0  0  0  0  0  0
    2.1434   -9.4875    0.0000 C   0  0  0  0  0  0  0  0  0  0  0  0
    2.8579   -9.0750    0.0000 C   0  0  0  0  0  0  0  0  0  0  0  0
    2.8579   -8.2500    0.0000 C   0  0  0  0  0  0  0  0  0  0  0  0
    3.5724   -7.8375    0.0000 C   0  0  0  0  0  0  0  0  0  0  0  0
    4.2868   -8.2500    0.0000 C   0  0  0  0  0  0  0  0  0  0  0  0
    4.2868   -9.0750    0.0000 C   0  0  0  0  0  0  0  0  0  0  0  0
    3.5724   -9.4875    0.0000 C   0  0  0  0  0  0  0  0  0  0  0  0
  1  2  1  0  0  0  0
  2  3  1  0  0  0  0
  2 20  1  0  0  0  0
  3  4  1  0  0  0  0
  4  5  1  0  0  0  0
  5  6  1  0  0  0  0
  6  7  1  0  0  0  0
  7  8  1  0  0  0  0
  7 14  1  0  0  0  0
  8  9  2  0  0  0  0
  8 13  1  0  0  0  0
  9 10  1  0  0  0  0
 10 11  2  0  0  0  0
 11 12  1  0  0  0  0
 12 13  2  0  0  0  0
 14 15  2  0  0  0  0
 14 19  1  0  0  0  0
 15 16  1  0  0  0  0
 16 17  2  0  0  0  0
 17 18  1  0  0  0  0
 18 19  2  0  0  0  0
 20 21  1  0  0  0  0
 21 22  1  0  0  0  0
 22 23  2  0  0  0  0
 22 27  1  0  0  0  0
 23 24  1  0  0  0  0
 24 25  2  0  0  0  0
 25 26  1  0  0  0  0
 25 28  1  0  0  0  0
 26 27  2  0  0  0  0
 28 29  2  0  0  0  0
 28 30  1  0  0  0  0
 30 31  1  0  0  0  0
 31 32  1  0  0  0  0
 32 33  2  0  0  0  0
 32 37  1  0  0  0  0
 33 34  1  0  0  0  0
 34 35  2  0  0  0  0
 35 36  1  0  0  0  0
 36 37  2  0  0  0  0
M  END
$$$$

 OpenBabel12191814062D

 37 40  0  0  0  0  0  0  0  0999 V2000
   -1.4289   -8.2500    0.0000 O   0  0  0  0  0  0  0  0  0  0  0  0
   -1.4289   -7.4250    0.0000 C   0  0  3  0  0  0  0  0  0  0  0  0
   -2.1434   -7.0125    0.0000 C   0  0  0  0  0  0  0  0  0  0  0  0
   -2.8579   -7.4250    0.0000 N   0  0  0  0  0  0  0  0  0  0  0  0
   -3.5724   -7.0125    0.0000 C   0  0  0  0  0  0  0  0  0  0  0  0
   -4.2868   -7.4250    0.0000 C   0  0  0  0  0  0  0  0  0  0  0  0
   -5.0013   -7.0125    0.0000 C   0  0  0  0  0  0  0  0  0  0  0  0
   -5.7158   -7.4250    0.0000 C   0  0  0  0  0  0  0  0  0  0  0  0
   -5.7158   -8.2500    0.0000 C   0  0  0  0  0  0  0  0  0  0  0  0
   -6.4302   -8.6625    0.0000 C   0  0  0  0  0  0  0  0  0  0  0  0
   -7.1447   -8.2500    0.0000 C   0  0  0  0  0  0  0  0  0  0  0  0
   -7.1447   -7.4250    0.0000 C   0  0  0  0  0  0  0  0  0  0  0  0
   -6.4302   -7.0125    0.0000 C   0  0  0  0  0  0  0  0  0  0  0  0
   -5.0013   -6.1875    0.0000 C   0  0  0  0  0  0  0  0  0  0  0  0
   -5.7158   -5.7750    0.0000 C   0  0  0  0  0  0  0  0  0  0  0  0
   -5.7158   -4.9500    0.0000 C   0  0  0  0  0  0  0  0  0  0  0  0
   -5.0013   -4.5375    0.0000 C   0  0  0  0  0  0  0  0  0  0  0  0
   -4.2868   -4.9500    0.0000 C   0  0  0  0  0  0  0  0  0  0  0  0
   -4.2868   -5.7750    0.0000 C   0  0  0  0  0  0  0  0  0  0  0  0
   -0.7145   -7.0125    0.0000 C   0  0  0  0  0  0  0  0  0  0  0  0
    0.0000   -7.4250    0.0000 O   0  0  0  0  0  0  0  0  0  0  0  0
    0.7145   -7.0125    0.0000 C   0  0  0  0  0  0  0  0  0  0  0  0
    0.7145   -6.1875    0.0000 C   0  0  0  0  0  0  0  0  0  0  0  0
    1.4289   -5.7750    0.0000 C   0  0  0  0  0  0  0  0  0  0  0  0
    2.1434   -6.1875    0.0000 C   0  0  0  0  0  0  0  0  0  0  0  0
    2.1434   -7.0125    0.0000 C   0  0  0  0  0  0  0  0  0  0  0  0
    1.4289   -7.4250    0.0000 C   0  0  0  0  0  0  0  0  0  0  0  0
    2.8579   -7.4250    0.0000 C   0  0  0  0  0  0  0  0  0  0  0  0
    3.5724   -7.0125    0.0000 O   0  0  0  0  0  0  0  0  0  0  0  0
    2.8579   -8.2500    0.0000 C   0  0  0  0  0  0  0  0  0  0  0  0
    3.5724   -8.6625    0.0000 C   0  0  0  0  0  0  0  0  0  0  0  0
    4.2868   -8.2500    0.0000 C   0  0  0  0  0  0  0  0  0  0  0  0
    4.2868   -7.4250    0.0000 C   0  0  0  0  0  0  0  0  0  0  0  0
    5.0013   -7.0125    0.0000 C   0  0  0  0  0  0  0  0  0  0  0  0
    5.7158   -7.4250    0.0000 C   0  0  0  0  0  0  0  0  0  0  0  0
    5.7158   -8.2500    0.0000 C   0  0  0  0  0  0  0  0  0  0  0  0
    5.0013   -8.6625    0.0000 C   0  0  0  0  0  0  0  0  0  0  0  0
  1  2  1  0  0  0  0
  2  3  1  0  0  0  0
  2 20  1  0  0  0  0
  3  4  1  0  0  0  0
  4  5  1  0  0  0  0
  5  6  1  0  0  0  0
  6  7  1  0  0  0  0
  7  8  1  0  0  0  0
  7 14  1  0  0  0  0
  8  9  2  0  0  0  0
  8 13  1  0  0  0  0
  9 10  1  0  0  0  0
 10 11  2  0  0  0  0
 11 12  1  0  0  0  0
 12 13  2  0  0  0  0
 14 15  2  0  0  0  0
 14 19  1  0  0  0  0
 15 16  1  0  0  0  0
 16 17  2  0  0  0  0
 17 18  1  0  0  0  0
 18 19  2  0  0  0  0
 20 21  1  0  0  0  0
 21 22  1  0  0  0  0
 22 23  2  0  0  0  0
 22 27  1  0  0  0  0
 23 24  1  0  0  0  0
 24 25  2  0  0  0  0
 25 26  1  0  0  0  0
 26 27  2  0  0  0  0
 26 28  1  0  0  0  0
 28 29  2  0  0  0  0
 28 30  1  0  0  0  0
 30 31  1  0  0  0  0
 31 32  1  0  0  0  0
 32 33  2  0  0  0  0
 32 37  1  0  0  0  0
 33 34  1  0  0  0  0
 34 35  2  0  0  0  0
 35 36  1  0  0  0  0
 36 37  2  0  0  0  0
M  END
$$$$

 OpenBabel12191814062D

 41 45  0  0  0  0  0  0  0  0999 V2000
   11.8142    4.8591    0.0000 O   0  0  0  0  0  0  0  0  0  0  0  0
   11.2741    4.2355    0.0000 C   0  0  3  0  0  0  0  0  0  0  0  0
   10.4640    4.3914    0.0000 C   0  0  0  0  0  0  0  0  0  0  0  0
    9.9239    3.7677    0.0000 N   0  0  0  0  0  0  0  0  0  0  0  0
    9.1137    3.9236    0.0000 C   0  0  0  0  0  0  0  0  0  0  0  0
    8.5737    3.3000    0.0000 C   0  0  0  0  0  0  0  0  0  0  0  0
    7.7635    3.4559    0.0000 C   0  0  0  0  0  0  0  0  0  0  0  0
    7.2234    2.8323    0.0000 C   0  0  0  0  0  0  0  0  0  0  0  0
    7.4935    2.0527    0.0000 C   0  0  0  0  0  0  0  0  0  0  0  0
    6.9534    1.4291    0.0000 C   0  0  0  0  0  0  0  0  0  0  0  0
    6.1432    1.5850    0.0000 C   0  0  0  0  0  0  0  0  0  0  0  0
    5.8732    2.3645    0.0000 C   0  0  0  0  0  0  0  0  0  0  0  0
    6.4133    2.9882    0.0000 C   0  0  0  0  0  0  0  0  0  0  0  0
    7.4935    4.2355    0.0000 C   0  0  0  0  0  0  0  0  0  0  0  0
    6.6833    4.3914    0.0000 C   0  0  0  0  0  0  0  0  0  0  0  0
    6.4133    5.1709    0.0000 C   0  0  0  0  0  0  0  0  0  0  0  0
    6.9534    5.7946    0.0000 C   0  0  0  0  0  0  0  0  0  0  0  0
    7.7635    5.6387    0.0000 C   0  0  0  0  0  0  0  0  0  0  0  0
    8.0336    4.8591    0.0000 C   0  0  0  0  0  0  0  0  0  0  0  0
   11.5441    3.4559    0.0000 C   0  0  0  0  0  0  0  0  0  0  0  0
   12.3543    3.3000    0.0000 O   0  0  0  0  0  0  0  0  0  0  0  0
   12.8944    3.9236    0.0000 C   0  0  0  0  0  0  0  0  0  0  0  0
   12.6243    4.7032    0.0000 C   0  0  0  0  0  0  0  0  0  0  0  0
   13.1644    5.3268    0.0000 C   0  0  0  0  0  0  0  0  0  0  0  0
   13.9745    5.1709    0.0000 C   0  0  0  0  0  0  0  0  0  0  0  0
   14.2446    4.3914    0.0000 C   0  0  0  0  0  0  0  0  0  0  0  0
   13.7045    3.7677    0.0000 C   0  0  0  0  0  0  0  0  0  0  0  0
   13.9745    2.9882    0.0000 C   0  0  0  0  0  0  0  0  0  0  0  0
   13.4345    2.3645    0.0000 O   0  0  0  0  0  0  0  0  0  0  0  0
   14.7847    2.8323    0.0000 C   0  0  0  0  0  0  0  0  0  0  0  0
   15.0547    2.0527    0.0000 C   0  0  0  0  0  0  0  0  0  0  0  0
   15.8649    1.8968    0.0000 C   0  0  0  0  0  0  0  0  0  0  0  0
   16.4049    2.5204    0.0000 C   0  0  0  0  0  0  0  0  0  0  0  0
   17.2151    2.3645    0.0000 C   0  0  0  0  0  0  0  0  0  0  0  0
   17.4851    1.5850    0.0000 C   0  0  0  0  0  0  0  0  0  0  0  0
   16.9450    0.9613    0.0000 C   0  0  0  0  0  0  0  0  0  0  0  0
   17.2151    0.1818    0.0000 C   0  0  0  0  0  0  0  0  0  0  0  0
   16.6750   -0.4418    0.0000 C   0  0  0  0  0  0  0  0  0  0  0  0
   15.8649   -0.2859    0.0000 C   0  0  0  0  0  0  0  0  0  0  0  0
   15.5948    0.4936    0.0000 C   0  0  0  0  0  0  0  0  0  0  0  0
   16.1349    1.1173    0.0000 C   0  0  0  0  0  0  0  0  0  0  0  0
  1  2  1  0  0  0  0
  2  3  1  0  0  0  0
  2 20  1  0  0  0  0
  3  4  1  0  0  0  0
  4  5  1  0  0  0  0
  5  6  1  0  0  0  0
  6  7  1  0  0  0  0
  7  8  1  0  0  0  0
  7 14  1  0  0  0  0
  8  9  2  0  0  0  0
  8 13  1  0  0  0  0
  9 10  1  0  0  0  0
 10 11  2  0  0  0  0
 11 12  1  0  0  0  0
 12 13  2  0  0  0  0
 14 15  2  0  0  0  0
 14 19  1  0  0  0  0
 15 16  1  0  0  0  0
 16 17  2  0  0  0  0
 17 18  1  0  0  0  0
 18 19  2  0  0  0  0
 20 21  1  0  0  0  0
 21 22  1  0  0  0  0
 22 23  2  0  0  0  0
 22 27  1  0  0  0  0
 23 24  1  0  0  0  0
 24 25  2  0  0  0  0
 25 26  1  0  0  0  0
 26 27  2  0  0  0  0
 27 28  1  0  0  0  0
 28 29  2  0  0  0  0
 28 30  1  0  0  0  0
 30 31  1  0  0  0  0
 31 32  1  0  0  0  0
 32 33  2  0  0  0  0
 32 41  1  0  0  0  0
 33 34  1  0  0  0  0
 34 35  2  0  0  0  0
 35 36  1  0  0  0  0
 36 37  2  0  0  0  0
 36 41  1  0  0  0  0
 37 38  1  0  0  0  0
 38 39  2  0  0  0  0
 39 40  1  0  0  0  0
 40 41  2  0  0  0  0
M  END
$$$$

 OpenBabel12191814062D

 37 40  0  0  0  0  0  0  0  0999 V2000
    4.2868   -7.4250    0.0000 O   0  0  0  0  0  0  0  0  0  0  0  0
    4.2868   -6.6000    0.0000 C   0  0  3  0  0  0  0  0  0  0  0  0
    3.5724   -6.1875    0.0000 C   0  0  0  0  0  0  0  0  0  0  0  0
    2.8579   -6.6000    0.0000 N   0  0  0  0  0  0  0  0  0  0  0  0
    2.1434   -6.1875    0.0000 C   0  0  0  0  0  0  0  0  0  0  0  0
    1.4289   -6.6000    0.0000 C   0  0  0  0  0  0  0  0  0  0  0  0
    0.7145   -6.1875    0.0000 C   0  0  0  0  0  0  0  0  0  0  0  0
   -0.0000   -6.6000    0.0000 C   0  0  0  0  0  0  0  0  0  0  0  0
   -0.0000   -7.4250    0.0000 C   0  0  0  0  0  0  0  0  0  0  0  0
   -0.7145   -7.8375    0.0000 C   0  0  0  0  0  0  0  0  0  0  0  0
   -1.4289   -7.4250    0.0000 C   0  0  0  0  0  0  0  0  0  0  0  0
   -1.4289   -6.6000    0.0000 C   0  0  0  0  0  0  0  0  0  0  0  0
   -0.7145   -6.1875    0.0000 C   0  0  0  0  0  0  0  0  0  0  0  0
    0.7145   -5.3625    0.0000 C   0  0  0  0  0  0  0  0  0  0  0  0
   -0.0000   -4.9500    0.0000 C   0  0  0  0  0  0  0  0  0  0  0  0
   -0.0000   -4.1250    0.0000 C   0  0  0  0  0  0  0  0  0  0  0  0
    0.7145   -3.7125    0.0000 C   0  0  0  0  0  0  0  0  0  0  0  0
    1.4289   -4.1250    0.0000 C   0  0  0  0  0  0  0  0  0  0  0  0
    1.4289   -4.9500    0.0000 C   0  0  0  0  0  0  0  0  0  0  0  0
    5.0013   -6.1875    0.0000 C   0  0  0  0  0  0  0  0  0  0  0  0
    5.7158   -6.6000    0.0000 O   0  0  0  0  0  0  0  0  0  0  0  0
    6.4302   -6.1875    0.0000 C   0  0  0  0  0  0  0  0  0  0  0  0
    6.4302   -5.3625    0.0000 C   0  0  0  0  0  0  0  0  0  0  0  0
    7.1447   -4.9500    0.0000 C   0  0  0  0  0  0  0  0  0  0  0  0
    7.8592   -5.3625    0.0000 C   0  0  0  0  0  0  0  0  0  0  0  0
    7.8592   -6.1875    0.0000 C   0  0  0  0  0  0  0  0  0  0  0  0
    7.1447   -6.6000    0.0000 C   0  0  0  0  0  0  0  0  0  0  0  0
    7.1447   -7.4250    0.0000 C   0  0  0  0  0  0  0  0  0  0  0  0
    7.8592   -7.8375    0.0000 O   0  0  0  0  0  0  0  0  0  0  0  0
    6.4302   -7.8375    0.0000 C   0  0  0  0  0  0  0  0  0  0  0  0
    6.4302   -8.6625    0.0000 C   0  0  0  0  0  0  0  0  0  0  0  0
    7.1447   -9.0750    0.0000 C   0  0  0  0  0  0  0  0  0  0  0  0
    7.8592   -8.6625    0.0000 C   0  0  0  0  0  0  0  0  0  0  0  0
    8.5737   -9.0750    0.0000 C   0  0  0  0  0  0  0  0  0  0  0  0
    8.5737   -9.9000    0.0000 C   0  0  0  0  0  0  0  0  0  0  0  0
    7.8592  -10.3125    0.0000 C   0  0  0  0  0  0  0  0  0  0  0  0
    7.1447   -9.9000    0.0000 C   0  0  0  0  0  0  0  0  0  0  0  0
  1  2  1  0  0  0  0
  2  3  1  0  0  0  0
  2 20  1  0  0  0  0
  3  4  1  0  0  0  0
  4  5  1  0  0  0  0
  5  6  1  0  0  0  0
  6  7  1  0  0  0  0
  7  8  1  0  0  0  0
  7 14  1  0  0  0  0
  8  9  2  0  0  0  0
  8 13  1  0  0  0  0
  9 10  1  0  0  0  0
 10 11  2  0  0  0  0
 11 12  1  0  0  0  0
 12 13  2  0  0  0  0
 14 15  2  0  0  0  0
 14 19  1  0  0  0  0
 15 16  1  0  0  0  0
 16 17  2  0  0  0  0
 17 18  1  0  0  0  0
 18 19  2  0  0  0  0
 20 21  1  0  0  0  0
 21 22  1  0  0  0  0
 22 23  2  0  0  0  0
 22 27  1  0  0  0  0
 23 24  1  0  0  0  0
 24 25  2  0  0  0  0
 25 26  1  0  0  0  0
 26 27  2  0  0  0  0
 27 28  1  0  0  0  0
 28 29  2  0  0  0  0
 28 30  1  0  0  0  0
 30 31  1  0  0  0  0
 31 32  1  0  0  0  0
 32 33  2  0  0  0  0
 32 37  1  0  0  0  0
 33 34  1  0  0  0  0
 34 35  2  0  0  0  0
 35 36  1  0  0  0  0
 36 37  2  0  0  0  0
M  END
$$$$

 OpenBabel12191814062D

 38 41  0  0  0  0  0  0  0  0999 V2000
    6.4302   -8.6625    0.0000 O   0  0  0  0  0  0  0  0  0  0  0  0
    6.4302   -7.8375    0.0000 C   0  0  3  0  0  0  0  0  0  0  0  0
    5.7158   -7.4250    0.0000 C   0  0  0  0  0  0  0  0  0  0  0  0
    5.0013   -7.8375    0.0000 N   0  0  0  0  0  0  0  0  0  0  0  0
    4.2868   -7.4250    0.0000 C   0  0  0  0  0  0  0  0  0  0  0  0
    3.5724   -7.8375    0.0000 C   0  0  0  0  0  0  0  0  0  0  0  0
    2.8579   -7.4250    0.0000 C   0  0  0  0  0  0  0  0  0  0  0  0
    2.1434   -7.8375    0.0000 C   0  0  0  0  0  0  0  0  0  0  0  0
    1.4289   -7.4250    0.0000 C   0  0  0  0  0  0  0  0  0  0  0  0
    0.7145   -7.8375    0.0000 C   0  0  0  0  0  0  0  0  0  0  0  0
   -0.0000   -7.4250    0.0000 C   0  0  0  0  0  0  0  0  0  0  0  0
   -0.0000   -6.6000    0.0000 C   0  0  0  0  0  0  0  0  0  0  0  0
    0.7145   -6.1875    0.0000 C   0  0  0  0  0  0  0  0  0  0  0  0
    1.4289   -6.6000    0.0000 C   0  0  0  0  0  0  0  0  0  0  0  0
    2.1434   -8.6625    0.0000 C   0  0  0  0  0  0  0  0  0  0  0  0
    2.8579   -9.0750    0.0000 C   0  0  0  0  0  0  0  0  0  0  0  0
    2.8579   -9.9000    0.0000 C   0  0  0  0  0  0  0  0  0  0  0  0
    2.1434  -10.3125    0.0000 C   0  0  0  0  0  0  0  0  0  0  0  0
    1.4289   -9.9000    0.0000 C   0  0  0  0  0  0  0  0  0  0  0  0
    1.4289   -9.0750    0.0000 C   0  0  0  0  0  0  0  0  0  0  0  0
    7.1447   -7.4250    0.0000 C   0  0  0  0  0  0  0  0  0  0  0  0
    7.8592   -7.8375    0.0000 O   0  0  0  0  0  0  0  0  0  0  0  0
    8.5737   -7.4250    0.0000 C   0  0  0  0  0  0  0  0  0  0  0  0
    8.5737   -6.6000    0.0000 C   0  0  0  0  0  0  0  0  0  0  0  0
    9.2881   -6.1875    0.0000 C   0  0  0  0  0  0  0  0  0  0  0  0
   10.0026   -6.6000    0.0000 C   0  0  0  0  0  0  0  0  0  0  0  0
   10.0026   -7.4250    0.0000 C   0  0  0  0  0  0  0  0  0  0  0  0
    9.2881   -7.8375    0.0000 C   0  0  0  0  0  0  0  0  0  0  0  0
    9.2881   -8.6625    0.0000 C   0  0  0  0  0  0  0  0  0  0  0  0
   10.0026   -9.0750    0.0000 O   0  0  0  0  0  0  0  0  0  0  0  0
    8.5737   -9.0750    0.0000 C   0  0  0  0  0  0  0  0  0  0  0  0
    8.5737   -9.9000    0.0000 C   0  0  0  0  0  0  0  0  0  0  0  0
    9.2881  -10.3125    0.0000 C   0  0  0  0  0  0  0  0  0  0  0  0
   10.0026   -9.9000    0.0000 C   0  0  0  0  0  0  0  0  0  0  0  0
   10.7171  -10.3125    0.0000 C   0  0  0  0  0  0  0  0  0  0  0  0
   10.7171  -11.1375    0.0000 C   0  0  0  0  0  0  0  0  0  0  0  0
   10.0026  -11.5500    0.0000 C   0  0  0  0  0  0  0  0  0  0  0  0
    9.2881  -11.1375    0.0000 C   0  0  0  0  0  0  0  0  0  0  0  0
  1  2  1  0  0  0  0
  2  3  1  0  0  0  0
  2 21  1  0  0  0  0
  3  4  1  0  0  0  0
  4  5  1  0  0  0  0
  5  6  1  0  0  0  0
  6  7  1  0  0  0  0
  7  8  1  0  0  0  0
  8  9  1  0  0  0  0
  8 15  1  0  0  0  0
  9 10  2  0  0  0  0
  9 14  1  0  0  0  0
 10 11  1  0  0  0  0
 11 12  2  0  0  0  0
 12 13  1  0  0  0  0
 13 14  2  0  0  0  0
 15 16  2  0  0  0  0
 15 20  1  0  0  0  0
 16 17  1  0  0  0  0
 17 18  2  0  0  0  0
 18 19  1  0  0  0  0
 19 20  2  0  0  0  0
 21 22  1  0  0  0  0
 22 23  1  0  0  0  0
 23 24  2  0  0  0  0
 23 28  1  0  0  0  0
 24 25  1  0  0  0  0
 25 26  2  0  0  0  0
 26 27  1  0  0  0  0
 27 28  2  0  0  0  0
 28 29  1  0  0  0  0
 29 30  2  0  0  0  0
 29 31  1  0  0  0  0
 31 32  1  0  0  0  0
 32 33  1  0  0  0  0
 33 34  2  0  0  0  0
 33 38  1  0  0  0  0
 34 35  1  0  0  0  0
 35 36  2  0  0  0  0
 36 37  1  0  0  0  0
 37 38  2  0  0  0  0
M  END
$$$$

 OpenBabel12191814062D

 27 29  0  0  0  0  0  0  0  0999 V2000
    2.1434   -3.7125    0.0000 O   0  0  0  0  0  0  0  0  0  0  0  0
    2.1434   -2.8875    0.0000 C   0  0  3  0  0  0  0  0  0  0  0  0
    1.4289   -2.4750    0.0000 C   0  0  0  0  0  0  0  0  0  0  0  0
    0.7145   -2.8875    0.0000 O   0  0  0  0  0  0  0  0  0  0  0  0
    0.0000   -2.4750    0.0000 C   0  0  0  0  0  0  0  0  0  0  0  0
   -0.7145   -2.8875    0.0000 C   0  0  0  0  0  0  0  0  0  0  0  0
   -1.4289   -2.4750    0.0000 C   0  0  0  0  0  0  0  0  0  0  0  0
   -1.4289   -1.6500    0.0000 C   0  0  0  0  0  0  0  0  0  0  0  0
   -0.7145   -1.2375    0.0000 C   0  0  0  0  0  0  0  0  0  0  0  0
    0.0000   -1.6500    0.0000 C   0  0  0  0  0  0  0  0  0  0  0  0
   -2.1434   -1.2375    0.0000 C   0  0  0  0  0  0  0  0  0  0  0  0
   -2.8579   -1.6500    0.0000 O   0  0  0  0  0  0  0  0  0  0  0  0
   -2.1434   -0.4125    0.0000 C   0  0  0  0  0  0  0  0  0  0  0  0
   -2.8579    0.0000    0.0000 C   0  0  0  0  0  0  0  0  0  0  0  0
   -2.8579    0.8250    0.0000 C   0  0  0  0  0  0  0  0  0  0  0  0
   -3.5724    1.2375    0.0000 C   0  0  0  0  0  0  0  0  0  0  0  0
   -3.5724    2.0625    0.0000 C   0  0  0  0  0  0  0  0  0  0  0  0
   -2.8579    2.4750    0.0000 C   0  0  0  0  0  0  0  0  0  0  0  0
   -2.1434    2.0625    0.0000 C   0  0  0  0  0  0  0  0  0  0  0  0
   -2.1434    1.2375    0.0000 C   0  0  0  0  0  0  0  0  0  0  0  0
    2.8579   -2.4750    0.0000 C   0  0  0  0  0  0  0  0  0  0  0  0
    3.5724   -2.8875    0.0000 N   0  0  0  0  0  0  0  0  0  0  0  0
    4.2868   -2.4750    0.0000 C   0  0  0  0  0  0  0  0  0  0  0  0
    5.0013   -2.8875    0.0000 C   0  0  0  0  0  0  0  0  0  0  0  0
    5.0013   -3.7125    0.0000 C   0  0  0  0  0  0  0  0  0  0  0  0
    4.2868   -4.1250    0.0000 C   0  0  0  0  0  0  0  0  0  0  0  0
    3.5724   -3.7125    0.0000 C   0  0  0  0  0  0  0  0  0  0  0  0
  1  2  1  0  0  0  0
  2  3  1  0  0  0  0
  2 21  1  0  0  0  0
  3  4  1  0  0  0  0
  4  5  1  0  0  0  0
  5  6  2  0  0  0  0
  5 10  1  0  0  0  0
  6  7  1  0  0  0  0
  7  8  2  0  0  0  0
  8  9  1  0  0  0  0
  8 11  1  0  0  0  0
  9 10  2  0  0  0  0
 11 12  2  0  0  0  0
 11 13  1  0  0  0  0
 13 14  1  0  0  0  0
 14 15  1  0  0  0  0
 15 16  2  0  0  0  0
 15 20  1  0  0  0  0
 16 17  1  0  0  0  0
 17 18  2  0  0  0  0
 18 19  1  0  0  0  0
 19 20  2  0  0  0  0
 21 22  1  0  0  0  0
 22 23  1  0  0  0  0
 22 27  1  0  0  0  0
 23 24  1  0  0  0  0
 24 25  1  0  0  0  0
 25 26  1  0  0  0  0
 26 27  1  0  0  0  0
M  END
$$$$

 OpenBabel12191814062D

 34 37  0  0  0  0  0  0  0  0999 V2000
    2.1434   -3.7125    0.0000 O   0  0  0  0  0  0  0  0  0  0  0  0
    1.4289   -4.1250    0.0000 C   0  0  3  0  0  0  0  0  0  0  0  0
    1.4289   -4.9500    0.0000 C   0  0  0  0  0  0  0  0  0  0  0  0
    2.1434   -5.3625    0.0000 O   0  0  0  0  0  0  0  0  0  0  0  0
    2.1434   -6.1875    0.0000 C   0  0  0  0  0  0  0  0  0  0  0  0
    2.8579   -6.6000    0.0000 C   0  0  0  0  0  0  0  0  0  0  0  0
    2.8579   -7.4250    0.0000 C   0  0  0  0  0  0  0  0  0  0  0  0
    2.1434   -7.8375    0.0000 C   0  0  0  0  0  0  0  0  0  0  0  0
    1.4289   -7.4250    0.0000 C   0  0  0  0  0  0  0  0  0  0  0  0
    1.4289   -6.6000    0.0000 C   0  0  0  0  0  0  0  0  0  0  0  0
    2.1434   -8.6625    0.0000 C   0  0  0  0  0  0  0  0  0  0  0  0
    2.8579   -9.0750    0.0000 O   0  0  0  0  0  0  0  0  0  0  0  0
    1.4289   -9.0750    0.0000 C   0  0  0  0  0  0  0  0  0  0  0  0
    1.4289   -9.9000    0.0000 C   0  0  0  0  0  0  0  0  0  0  0  0
    0.7145  -10.3125    0.0000 C   0  0  0  0  0  0  0  0  0  0  0  0
    0.7145  -11.1375    0.0000 C   0  0  0  0  0  0  0  0  0  0  0  0
    0.0000  -11.5500    0.0000 C   0  0  0  0  0  0  0  0  0  0  0  0
   -0.7145  -11.1375    0.0000 C   0  0  0  0  0  0  0  0  0  0  0  0
   -0.7145  -10.3125    0.0000 C   0  0  0  0  0  0  0  0  0  0  0  0
    0.0000   -9.9000    0.0000 C   0  0  0  0  0  0  0  0  0  0  0  0
    0.7145   -3.7125    0.0000 C   0  0  0  0  0  0  0  0  0  0  0  0
    0.7145   -2.8875    0.0000 N   0  0  0  0  0  0  0  0  0  0  0  0
    0.0000   -2.4750    0.0000 C   0  0  0  0  0  0  0  0  0  0  0  0
    0.0000   -1.6500    0.0000 C   0  0  0  0  0  0  0  0  0  0  0  0
    0.7145   -1.2375    0.0000 N   0  0  0  0  0  0  0  0  0  0  0  0
    1.4289   -1.6500    0.0000 C   0  0  0  0  0  0  0  0  0  0  0  0
    1.4289   -2.4750    0.0000 C   0  0  0  0  0  0  0  0  0  0  0  0
    0.7145   -0.4125    0.0000 C   0  0  0  0  0  0  0  0  0  0  0  0
    0.0000    0.0000    0.0000 C   0  0  0  0  0  0  0  0  0  0  0  0
    0.0000    0.8250    0.0000 C   0  0  0  0  0  0  0  0  0  0  0  0
    0.7145    1.2375    0.0000 C   0  0  0  0  0  0  0  0  0  0  0  0
    0.7145    2.0625    0.0000 F   0  0  0  0  0  0  0  0  0  0  0  0
    1.4289    0.8250    0.0000 C   0  0  0  0  0  0  0  0  0  0  0  0
    1.4289    0.0000    0.0000 C   0  0  0  0  0  0  0  0  0  0  0  0
  1  2  1  0  0  0  0
  2  3  1  0  0  0  0
  2 21  1  0  0  0  0
  3  4  1  0  0  0  0
  4  5  1  0  0  0  0
  5  6  2  0  0  0  0
  5 10  1  0  0  0  0
  6  7  1  0  0  0  0
  7  8  2  0  0  0  0
  8  9  1  0  0  0  0
  8 11  1  0  0  0  0
  9 10  2  0  0  0  0
 11 12  2  0  0  0  0
 11 13  1  0  0  0  0
 13 14  1  0  0  0  0
 14 15  1  0  0  0  0
 15 16  2  0  0  0  0
 15 20  1  0  0  0  0
 16 17  1  0  0  0  0
 17 18  2  0  0  0  0
 18 19  1  0  0  0  0
 19 20  2  0  0  0  0
 21 22  1  0  0  0  0
 22 23  1  0  0  0  0
 22 27  1  0  0  0  0
 23 24  1  0  0  0  0
 24 25  1  0  0  0  0
 25 26  1  0  0  0  0
 25 28  1  0  0  0  0
 26 27  1  0  0  0  0
 28 29  2  0  0  0  0
 28 34  1  0  0  0  0
 29 30  1  0  0  0  0
 30 31  2  0  0  0  0
 31 32  1  0  0  0  0
 31 33  1  0  0  0  0
 33 34  2  0  0  0  0
M  END
$$$$

 OpenBabel12191814062D

 27 29  0  0  0  0  0  0  0  0999 V2000
    2.1434   -3.7125    0.0000 O   0  0  0  0  0  0  0  0  0  0  0  0
    2.1434   -2.8875    0.0000 C   0  0  3  0  0  0  0  0  0  0  0  0
    1.4289   -2.4750    0.0000 C   0  0  0  0  0  0  0  0  0  0  0  0
    0.7145   -2.8875    0.0000 O   0  0  0  0  0  0  0  0  0  0  0  0
    0.0000   -2.4750    0.0000 C   0  0  0  0  0  0  0  0  0  0  0  0
   -0.7145   -2.8875    0.0000 C   0  0  0  0  0  0  0  0  0  0  0  0
   -1.4289   -2.4750    0.0000 C   0  0  0  0  0  0  0  0  0  0  0  0
   -1.4289   -1.6500    0.0000 C   0  0  0  0  0  0  0  0  0  0  0  0
   -0.7145   -1.2375    0.0000 C   0  0  0  0  0  0  0  0  0  0  0  0
    0.0000   -1.6500    0.0000 C   0  0  0  0  0  0  0  0  0  0  0  0
   -2.1434   -1.2375    0.0000 C   0  0  0  0  0  0  0  0  0  0  0  0
   -2.8579   -1.6500    0.0000 O   0  0  0  0  0  0  0  0  0  0  0  0
   -2.1434   -0.4125    0.0000 C   0  0  0  0  0  0  0  0  0  0  0  0
   -2.8579    0.0000    0.0000 C   0  0  0  0  0  0  0  0  0  0  0  0
   -2.8579    0.8250    0.0000 C   0  0  0  0  0  0  0  0  0  0  0  0
   -3.5724    1.2375    0.0000 C   0  0  0  0  0  0  0  0  0  0  0  0
   -3.5724    2.0625    0.0000 C   0  0  0  0  0  0  0  0  0  0  0  0
   -2.8579    2.4750    0.0000 C   0  0  0  0  0  0  0  0  0  0  0  0
   -2.1434    2.0625    0.0000 C   0  0  0  0  0  0  0  0  0  0  0  0
   -2.1434    1.2375    0.0000 C   0  0  0  0  0  0  0  0  0  0  0  0
    2.8579   -2.4750    0.0000 C   0  0  0  0  0  0  0  0  0  0  0  0
    3.5724   -2.8875    0.0000 N   0  0  0  0  0  0  0  0  0  0  0  0
    4.2868   -2.4750    0.0000 C   0  0  0  0  0  0  0  0  0  0  0  0
    5.0013   -2.8875    0.0000 C   0  0  0  0  0  0  0  0  0  0  0  0
    5.0013   -3.7125    0.0000 O   0  0  0  0  0  0  0  0  0  0  0  0
    4.2868   -4.1250    0.0000 C   0  0  0  0  0  0  0  0  0  0  0  0
    3.5724   -3.7125    0.0000 C   0  0  0  0  0  0  0  0  0  0  0  0
  1  2  1  0  0  0  0
  2  3  1  0  0  0  0
  2 21  1  0  0  0  0
  3  4  1  0  0  0  0
  4  5  1  0  0  0  0
  5  6  2  0  0  0  0
  5 10  1  0  0  0  0
  6  7  1  0  0  0  0
  7  8  2  0  0  0  0
  8  9  1  0  0  0  0
  8 11  1  0  0  0  0
  9 10  2  0  0  0  0
 11 12  2  0  0  0  0
 11 13  1  0  0  0  0
 13 14  1  0  0  0  0
 14 15  1  0  0  0  0
 15 16  2  0  0  0  0
 15 20  1  0  0  0  0
 16 17  1  0  0  0  0
 17 18  2  0  0  0  0
 18 19  1  0  0  0  0
 19 20  2  0  0  0  0
 21 22  1  0  0  0  0
 22 23  1  0  0  0  0
 22 27  1  0  0  0  0
 23 24  1  0  0  0  0
 24 25  1  0  0  0  0
 25 26  1  0  0  0  0
 26 27  1  0  0  0  0
M  END
$$$$

 OpenBabel12191814062D

 28 30  0  0  0  0  0  0  0  0999 V2000
    2.1434   -3.7125    0.0000 O   0  0  0  0  0  0  0  0  0  0  0  0
    2.1434   -2.8875    0.0000 C   0  0  3  0  0  0  0  0  0  0  0  0
    1.4289   -2.4750    0.0000 C   0  0  0  0  0  0  0  0  0  0  0  0
    0.7145   -2.8875    0.0000 O   0  0  0  0  0  0  0  0  0  0  0  0
    0.7145   -3.7125    0.0000 C   0  0  0  0  0  0  0  0  0  0  0  0
    1.4289   -4.1250    0.0000 C   0  0  0  0  0  0  0  0  0  0  0  0
    1.4289   -4.9500    0.0000 C   0  0  0  0  0  0  0  0  0  0  0  0
    0.7145   -5.3625    0.0000 C   0  0  0  0  0  0  0  0  0  0  0  0
    0.7145   -6.1875    0.0000 O   0  0  0  0  0  0  0  0  0  0  0  0
    0.0000   -4.9500    0.0000 C   0  0  0  0  0  0  0  0  0  0  0  0
    0.0000   -4.1250    0.0000 C   0  0  0  0  0  0  0  0  0  0  0  0
   -0.7145   -3.7125    0.0000 C   0  0  0  0  0  0  0  0  0  0  0  0
   -0.7145   -2.8875    0.0000 O   0  0  0  0  0  0  0  0  0  0  0  0
   -1.4289   -4.1250    0.0000 C   0  0  0  0  0  0  0  0  0  0  0  0
   -2.1434   -3.7125    0.0000 C   0  0  0  0  0  0  0  0  0  0  0  0
   -2.8579   -4.1250    0.0000 C   0  0  0  0  0  0  0  0  0  0  0  0
   -2.8579   -4.9500    0.0000 C   0  0  0  0  0  0  0  0  0  0  0  0
   -3.5724   -5.3625    0.0000 C   0  0  0  0  0  0  0  0  0  0  0  0
   -4.2868   -4.9500    0.0000 C   0  0  0  0  0  0  0  0  0  0  0  0
   -4.2868   -4.1250    0.0000 C   0  0  0  0  0  0  0  0  0  0  0  0
   -3.5724   -3.7125    0.0000 C   0  0  0  0  0  0  0  0  0  0  0  0
    2.8579   -2.4750    0.0000 C   0  0  0  0  0  0  0  0  0  0  0  0
    3.5724   -2.8875    0.0000 N   0  0  0  0  0  0  0  0  0  0  0  0
    4.2868   -2.4750    0.0000 C   0  0  0  0  0  0  0  0  0  0  0  0
    5.0013   -2.8875    0.0000 C   0  0  0  0  0  0  0  0  0  0  0  0
    5.0013   -3.7125    0.0000 C   0  0  0  0  0  0  0  0  0  0  0  0
    4.2868   -4.1250    0.0000 C   0  0  0  0  0  0  0  0  0  0  0  0
    3.5724   -3.7125    0.0000 C   0  0  0  0  0  0  0  0  0  0  0  0
  1  2  1  0  0  0  0
  2  3  1  0  0  0  0
  2 22  1  0  0  0  0
  3  4  1  0  0  0  0
  4  5  1  0  0  0  0
  5  6  2  0  0  0  0
  5 11  1  0  0  0  0
  6  7  1  0  0  0  0
  7  8  2  0  0  0  0
  8  9  1  0  0  0  0
  8 10  1  0  0  0  0
 10 11  2  0  0  0  0
 11 12  1  0  0  0  0
 12 13  2  0  0  0  0
 12 14  1  0  0  0  0
 14 15  1  0  0  0  0
 15 16  1  0  0  0  0
 16 17  2  0  0  0  0
 16 21  1  0  0  0  0
 17 18  1  0  0  0  0
 18 19  2  0  0  0  0
 19 20  1  0  0  0  0
 20 21  2  0  0  0  0
 22 23  1  0  0  0  0
 23 24  1  0  0  0  0
 23 28  1  0  0  0  0
 24 25  1  0  0  0  0
 25 26  1  0  0  0  0
 26 27  1  0  0  0  0
 27 28  1  0  0  0  0
M  END
$$$$

 OpenBabel12191814062D

 35 38  0  0  0  0  0  0  0  0999 V2000
   -4.2868   -2.4750    0.0000 O   0  0  0  0  0  0  0  0  0  0  0  0
   -5.0013   -2.8875    0.0000 C   0  0  3  0  0  0  0  0  0  0  0  0
   -5.0013   -3.7125    0.0000 C   0  0  0  0  0  0  0  0  0  0  0  0
   -4.2868   -4.1250    0.0000 O   0  0  0  0  0  0  0  0  0  0  0  0
   -4.2868   -4.9500    0.0000 C   0  0  0  0  0  0  0  0  0  0  0  0
   -3.5724   -5.3625    0.0000 C   0  0  0  0  0  0  0  0  0  0  0  0
   -3.5724   -6.1875    0.0000 C   0  0  0  0  0  0  0  0  0  0  0  0
   -4.2868   -6.6000    0.0000 C   0  0  0  0  0  0  0  0  0  0  0  0
   -4.2868   -7.4250    0.0000 O   0  0  0  0  0  0  0  0  0  0  0  0
   -5.0013   -6.1875    0.0000 C   0  0  0  0  0  0  0  0  0  0  0  0
   -5.0013   -5.3625    0.0000 C   0  0  0  0  0  0  0  0  0  0  0  0
   -5.7158   -4.9500    0.0000 C   0  0  0  0  0  0  0  0  0  0  0  0
   -5.7158   -4.1250    0.0000 O   0  0  0  0  0  0  0  0  0  0  0  0
   -6.4302   -5.3625    0.0000 C   0  0  0  0  0  0  0  0  0  0  0  0
   -7.1447   -4.9500    0.0000 C   0  0  0  0  0  0  0  0  0  0  0  0
   -7.8592   -5.3625    0.0000 C   0  0  0  0  0  0  0  0  0  0  0  0
   -7.8592   -6.1875    0.0000 C   0  0  0  0  0  0  0  0  0  0  0  0
   -8.5737   -6.6000    0.0000 C   0  0  0  0  0  0  0  0  0  0  0  0
   -9.2881   -6.1875    0.0000 C   0  0  0  0  0  0  0  0  0  0  0  0
   -9.2881   -5.3625    0.0000 C   0  0  0  0  0  0  0  0  0  0  0  0
   -8.5737   -4.9500    0.0000 C   0  0  0  0  0  0  0  0  0  0  0  0
   -5.7158   -2.4750    0.0000 C   0  0  0  0  0  0  0  0  0  0  0  0
   -5.7158   -1.6500    0.0000 N   0  0  0  0  0  0  0  0  0  0  0  0
   -6.4302   -1.2375    0.0000 C   0  0  0  0  0  0  0  0  0  0  0  0
   -6.4302   -0.4125    0.0000 C   0  0  0  0  0  0  0  0  0  0  0  0
   -5.7158   -0.0000    0.0000 N   0  0  0  0  0  0  0  0  0  0  0  0
   -5.7158    0.8250    0.0000 C   0  0  0  0  0  0  0  0  0  0  0  0
   -6.4302    1.2375    0.0000 C   0  0  0  0  0  0  0  0  0  0  0  0
   -7.1447    0.8250    0.0000 C   0  0  0  0  0  0  0  0  0  0  0  0
   -7.8592    1.2375    0.0000 C   0  0  0  0  0  0  0  0  0  0  0  0
   -7.8592    2.0625    0.0000 C   0  0  0  0  0  0  0  0  0  0  0  0
   -7.1447    2.4750    0.0000 C   0  0  0  0  0  0  0  0  0  0  0  0
   -6.4302    2.0625    0.0000 C   0  0  0  0  0  0  0  0  0  0  0  0
   -5.0013   -0.4125    0.0000 C   0  0  0  0  0  0  0  0  0  0  0  0
   -5.0013   -1.2375    0.0000 C   0  0  0  0  0  0  0  0  0  0  0  0
  1  2  1  0  0  0  0
  2  3  1  0  0  0  0
  2 22  1  0  0  0  0
  3  4  1  0  0  0  0
  4  5  1  0  0  0  0
  5  6  2  0  0  0  0
  5 11  1  0  0  0  0
  6  7  1  0  0  0  0
  7  8  2  0  0  0  0
  8  9  1  0  0  0  0
  8 10  1  0  0  0  0
 10 11  2  0  0  0  0
 11 12  1  0  0  0  0
 12 13  2  0  0  0  0
 12 14  1  0  0  0  0
 14 15  1  0  0  0  0
 15 16  1  0  0  0  0
 16 17  2  0  0  0  0
 16 21  1  0  0  0  0
 17 18  1  0  0  0  0
 18 19  2  0  0  0  0
 19 20  1  0  0  0  0
 20 21  2  0  0  0  0
 22 23  1  0  0  0  0
 23 24  1  0  0  0  0
 23 35  1  0  0  0  0
 24 25  1  0  0  0  0
 25 26  1  0  0  0  0
 26 27  1  0  0  0  0
 26 34  1  0  0  0  0
 27 28  1  0  0  0  0
 28 29  2  0  0  0  0
 28 33  1  0  0  0  0
 29 30  1  0  0  0  0
 30 31  2  0  0  0  0
 31 32  1  0  0  0  0
 32 33  2  0  0  0  0
 34 35  1  0  0  0  0
M  END
$$$$

 OpenBabel12191814062D

 34 37  0  0  0  0  0  0  0  0999 V2000
    2.1434   -1.2375    0.0000 O   0  0  0  0  0  0  0  0  0  0  0  0
    1.4289   -1.6500    0.0000 C   0  0  3  0  0  0  0  0  0  0  0  0
    1.4289   -2.4750    0.0000 C   0  0  0  0  0  0  0  0  0  0  0  0
    2.1434   -2.8875    0.0000 O   0  0  0  0  0  0  0  0  0  0  0  0
    2.1434   -3.7125    0.0000 C   0  0  0  0  0  0  0  0  0  0  0  0
    2.8579   -4.1250    0.0000 C   0  0  0  0  0  0  0  0  0  0  0  0
    2.8579   -4.9500    0.0000 C   0  0  0  0  0  0  0  0  0  0  0  0
    2.1434   -5.3625    0.0000 C   0  0  0  0  0  0  0  0  0  0  0  0
    2.1434   -6.1875    0.0000 O   0  0  0  0  0  0  0  0  0  0  0  0
    1.4289   -6.6000    0.0000 C   0  0  0  0  0  0  0  0  0  0  0  0
    1.4289   -7.4250    0.0000 C   0  0  0  0  0  0  0  0  0  0  0  0
    0.7145   -7.8375    0.0000 C   0  0  0  0  0  0  0  0  0  0  0  0
   -0.0000   -7.4250    0.0000 C   0  0  0  0  0  0  0  0  0  0  0  0
    0.0000   -6.6000    0.0000 C   0  0  0  0  0  0  0  0  0  0  0  0
    0.7145   -6.1875    0.0000 C   0  0  0  0  0  0  0  0  0  0  0  0
    1.4289   -4.9500    0.0000 C   0  0  0  0  0  0  0  0  0  0  0  0
    1.4289   -4.1250    0.0000 C   0  0  0  0  0  0  0  0  0  0  0  0
    0.7145   -3.7125    0.0000 C   0  0  0  0  0  0  0  0  0  0  0  0
    0.7145   -2.8875    0.0000 O   0  0  0  0  0  0  0  0  0  0  0  0
    0.0000   -4.1250    0.0000 C   0  0  0  0  0  0  0  0  0  0  0  0
    0.0000   -4.9500    0.0000 C   0  0  0  0  0  0  0  0  0  0  0  0
   -0.7145   -5.3625    0.0000 C   0  0  0  0  0  0  0  0  0  0  0  0
   -0.7145   -6.1875    0.0000 C   0  0  0  0  0  0  0  0  0  0  0  0
   -1.4289   -6.6000    0.0000 C   0  0  0  0  0  0  0  0  0  0  0  0
   -2.1434   -6.1875    0.0000 C   0  0  0  0  0  0  0  0  0  0  0  0
   -2.1434   -5.3625    0.0000 C   0  0  0  0  0  0  0  0  0  0  0  0
   -1.4289   -4.9500    0.0000 C   0  0  0  0  0  0  0  0  0  0  0  0
    0.7145   -1.2375    0.0000 C   0  0  0  0  0  0  0  0  0  0  0  0
    0.7145   -0.4125    0.0000 N   0  0  0  0  0  0  0  0  0  0  0  0
    0.0000    0.0000    0.0000 C   0  0  0  0  0  0  0  0  0  0  0  0
    0.0000    0.8250    0.0000 C   0  0  0  0  0  0  0  0  0  0  0  0
    0.7145    1.2375    0.0000 C   0  0  0  0  0  0  0  0  0  0  0  0
    1.4289    0.8250    0.0000 C   0  0  0  0  0  0  0  0  0  0  0  0
    1.4289    0.0000    0.0000 C   0  0  0  0  0  0  0  0  0  0  0  0
  1  2  1  0  0  0  0
  2  3  1  0  0  0  0
  2 28  1  0  0  0  0
  3  4  1  0  0  0  0
  4  5  1  0  0  0  0
  5  6  2  0  0  0  0
  5 17  1  0  0  0  0
  6  7  1  0  0  0  0
  7  8  2  0  0  0  0
  8  9  1  0  0  0  0
  8 16  1  0  0  0  0
  9 10  1  0  0  0  0
 10 11  2  0  0  0  0
 10 15  1  0  0  0  0
 11 12  1  0  0  0  0
 12 13  2  0  0  0  0
 13 14  1  0  0  0  0
 14 15  2  0  0  0  0
 16 17  2  0  0  0  0
 17 18  1  0  0  0  0
 18 19  2  0  0  0  0
 18 20  1  0  0  0  0
 20 21  1  0  0  0  0
 21 22  1  0  0  0  0
 22 23  2  0  0  0  0
 22 27  1  0  0  0  0
 23 24  1  0  0  0  0
 24 25  2  0  0  0  0
 25 26  1  0  0  0  0
 26 27  2  0  0  0  0
 28 29  1  0  0  0  0
 29 30  1  0  0  0  0
 29 34  1  0  0  0  0
 30 31  1  0  0  0  0
 31 32  1  0  0  0  0
 32 33  1  0  0  0  0
 33 34  1  0  0  0  0
M  END
$$$$

 OpenBabel12191814062D

 41 45  0  0  0  0  0  0  0  0999 V2000
   -4.2868   -2.4750    0.0000 O   0  0  0  0  0  0  0  0  0  0  0  0
   -5.0013   -2.8875    0.0000 C   0  0  3  0  0  0  0  0  0  0  0  0
   -5.0013   -3.7125    0.0000 C   0  0  0  0  0  0  0  0  0  0  0  0
   -4.2868   -4.1250    0.0000 O   0  0  0  0  0  0  0  0  0  0  0  0
   -4.2868   -4.9500    0.0000 C   0  0  0  0  0  0  0  0  0  0  0  0
   -3.5724   -5.3625    0.0000 C   0  0  0  0  0  0  0  0  0  0  0  0
   -3.5724   -6.1875    0.0000 C   0  0  0  0  0  0  0  0  0  0  0  0
   -4.2868   -6.6000    0.0000 C   0  0  0  0  0  0  0  0  0  0  0  0
   -4.2868   -7.4250    0.0000 O   0  0  0  0  0  0  0  0  0  0  0  0
   -5.0013   -7.8375    0.0000 C   0  0  0  0  0  0  0  0  0  0  0  0
   -5.0013   -8.6625    0.0000 C   0  0  0  0  0  0  0  0  0  0  0  0
   -5.7158   -9.0750    0.0000 C   0  0  0  0  0  0  0  0  0  0  0  0
   -6.4302   -8.6625    0.0000 C   0  0  0  0  0  0  0  0  0  0  0  0
   -6.4302   -7.8375    0.0000 C   0  0  0  0  0  0  0  0  0  0  0  0
   -5.7158   -7.4250    0.0000 C   0  0  0  0  0  0  0  0  0  0  0  0
   -5.0013   -6.1875    0.0000 C   0  0  0  0  0  0  0  0  0  0  0  0
   -5.0013   -5.3625    0.0000 C   0  0  0  0  0  0  0  0  0  0  0  0
   -5.7158   -4.9500    0.0000 C   0  0  0  0  0  0  0  0  0  0  0  0
   -5.7158   -4.1250    0.0000 O   0  0  0  0  0  0  0  0  0  0  0  0
   -6.4302   -5.3625    0.0000 C   0  0  0  0  0  0  0  0  0  0  0  0
   -6.4302   -6.1875    0.0000 C   0  0  0  0  0  0  0  0  0  0  0  0
   -7.1447   -6.6000    0.0000 C   0  0  0  0  0  0  0  0  0  0  0  0
   -7.1447   -7.4250    0.0000 C   0  0  0  0  0  0  0  0  0  0  0  0
   -7.8592   -7.8375    0.0000 C   0  0  0  0  0  0  0  0  0  0  0  0
   -8.5737   -7.4250    0.0000 C   0  0  0  0  0  0  0  0  0  0  0  0
   -8.5737   -6.6000    0.0000 C   0  0  0  0  0  0  0  0  0  0  0  0
   -7.8592   -6.1875    0.0000 C   0  0  0  0  0  0  0  0  0  0  0  0
   -5.7158   -2.4750    0.0000 C   0  0  0  0  0  0  0  0  0  0  0  0
   -5.7158   -1.6500    0.0000 N   0  0  0  0  0  0  0  0  0  0  0  0
   -6.4302   -1.2375    0.0000 C   0  0  0  0  0  0  0  0  0  0  0  0
   -6.4302   -0.4125    0.0000 C   0  0  0  0  0  0  0  0  0  0  0  0
   -5.7158   -0.0000    0.0000 N   0  0  0  0  0  0  0  0  0  0  0  0
   -5.7158    0.8250    0.0000 C   0  0  0  0  0  0  0  0  0  0  0  0
   -6.4302    1.2375    0.0000 C   0  0  0  0  0  0  0  0  0  0  0  0
   -7.1447    0.8250    0.0000 C   0  0  0  0  0  0  0  0  0  0  0  0
   -7.8592    1.2375    0.0000 C   0  0  0  0  0  0  0  0  0  0  0  0
   -7.8592    2.0625    0.0000 C   0  0  0  0  0  0  0  0  0  0  0  0
   -7.1447    2.4750    0.0000 C   0  0  0  0  0  0  0  0  0  0  0  0
   -6.4302    2.0625    0.0000 C   0  0  0  0  0  0  0  0  0  0  0  0
   -5.0013   -0.4125    0.0000 C   0  0  0  0  0  0  0  0  0  0  0  0
   -5.0013   -1.2375    0.0000 C   0  0  0  0  0  0  0  0  0  0  0  0
  1  2  1  0  0  0  0
  2  3  1  0  0  0  0
  2 28  1  0  0  0  0
  3  4  1  0  0  0  0
  4  5  1  0  0  0  0
  5  6  2  0  0  0  0
  5 17  1  0  0  0  0
  6  7  1  0  0  0  0
  7  8  2  0  0  0  0
  8  9  1  0  0  0  0
  8 16  1  0  0  0  0
  9 10  1  0  0  0  0
 10 11  2  0  0  0  0
 10 15  1  0  0  0  0
 11 12  1  0  0  0  0
 12 13  2  0  0  0  0
 13 14  1  0  0  0  0
 14 15  2  0  0  0  0
 16 17  2  0  0  0  0
 17 18  1  0  0  0  0
 18 19  2  0  0  0  0
 18 20  1  0  0  0  0
 20 21  1  0  0  0  0
 21 22  1  0  0  0  0
 22 23  2  0  0  0  0
 22 27  1  0  0  0  0
 23 24  1  0  0  0  0
 24 25  2  0  0  0  0
 25 26  1  0  0  0  0
 26 27  2  0  0  0  0
 28 29  1  0  0  0  0
 29 30  1  0  0  0  0
 29 41  1  0  0  0  0
 30 31  1  0  0  0  0
 31 32  1  0  0  0  0
 32 33  1  0  0  0  0
 32 40  1  0  0  0  0
 33 34  1  0  0  0  0
 34 35  2  0  0  0  0
 34 39  1  0  0  0  0
 35 36  1  0  0  0  0
 36 37  2  0  0  0  0
 37 38  1  0  0  0  0
 38 39  2  0  0  0  0
 40 41  1  0  0  0  0
M  END
$$$$

 OpenBabel12191814062D

 35 38  0  0  0  0  0  0  0  0999 V2000
    2.1434   -1.2375    0.0000 O   0  0  0  0  0  0  0  0  0  0  0  0
    1.4289   -1.6500    0.0000 C   0  0  3  0  0  0  0  0  0  0  0  0
    1.4289   -2.4750    0.0000 C   0  0  0  0  0  0  0  0  0  0  0  0
    2.1434   -2.8875    0.0000 O   0  0  0  0  0  0  0  0  0  0  0  0
    2.1434   -3.7125    0.0000 C   0  0  0  0  0  0  0  0  0  0  0  0
    2.8579   -4.1250    0.0000 C   0  0  0  0  0  0  0  0  0  0  0  0
    2.8579   -4.9500    0.0000 C   0  0  0  0  0  0  0  0  0  0  0  0
    2.1434   -5.3625    0.0000 C   0  0  0  0  0  0  0  0  0  0  0  0
    2.1434   -6.1875    0.0000 O   0  0  0  0  0  0  0  0  0  0  0  0
    1.4289   -6.6000    0.0000 C   0  0  0  0  0  0  0  0  0  0  0  0
    1.4289   -7.4250    0.0000 C   0  0  0  0  0  0  0  0  0  0  0  0
    2.1434   -7.8375    0.0000 C   0  0  0  0  0  0  0  0  0  0  0  0
    2.1434   -8.6625    0.0000 C   0  0  0  0  0  0  0  0  0  0  0  0
    1.4289   -9.0750    0.0000 C   0  0  0  0  0  0  0  0  0  0  0  0
    0.7145   -8.6625    0.0000 C   0  0  0  0  0  0  0  0  0  0  0  0
    0.7145   -7.8375    0.0000 C   0  0  0  0  0  0  0  0  0  0  0  0
    1.4289   -4.9500    0.0000 C   0  0  0  0  0  0  0  0  0  0  0  0
    1.4289   -4.1250    0.0000 C   0  0  0  0  0  0  0  0  0  0  0  0
    0.7145   -3.7125    0.0000 C   0  0  0  0  0  0  0  0  0  0  0  0
    0.7145   -2.8875    0.0000 O   0  0  0  0  0  0  0  0  0  0  0  0
    0.0000   -4.1250    0.0000 C   0  0  0  0  0  0  0  0  0  0  0  0
    0.0000   -4.9500    0.0000 C   0  0  0  0  0  0  0  0  0  0  0  0
   -0.7145   -5.3625    0.0000 C   0  0  0  0  0  0  0  0  0  0  0  0
   -0.7145   -6.1875    0.0000 C   0  0  0  0  0  0  0  0  0  0  0  0
   -1.4289   -6.6000    0.0000 C   0  0  0  0  0  0  0  0  0  0  0  0
   -2.1434   -6.1875    0.0000 C   0  0  0  0  0  0  0  0  0  0  0  0
   -2.1434   -5.3625    0.0000 C   0  0  0  0  0  0  0  0  0  0  0  0
   -1.4289   -4.9500    0.0000 C   0  0  0  0  0  0  0  0  0  0  0  0
    0.7145   -1.2375    0.0000 C   0  0  0  0  0  0  0  0  0  0  0  0
    0.7145   -0.4125    0.0000 N   0  0  0  0  0  0  0  0  0  0  0  0
    0.0000    0.0000    0.0000 C   0  0  0  0  0  0  0  0  0  0  0  0
    0.0000    0.8250    0.0000 C   0  0  0  0  0  0  0  0  0  0  0  0
    0.7145    1.2375    0.0000 C   0  0  0  0  0  0  0  0  0  0  0  0
    1.4289    0.8250    0.0000 C   0  0  0  0  0  0  0  0  0  0  0  0
    1.4289    0.0000    0.0000 C   0  0  0  0  0  0  0  0  0  0  0  0
  1  2  1  0  0  0  0
  2  3  1  0  0  0  0
  2 29  1  0  0  0  0
  3  4  1  0  0  0  0
  4  5  1  0  0  0  0
  5  6  2  0  0  0  0
  5 18  1  0  0  0  0
  6  7  1  0  0  0  0
  7  8  2  0  0  0  0
  8  9  1  0  0  0  0
  8 17  1  0  0  0  0
  9 10  1  0  0  0  0
 10 11  1  0  0  0  0
 11 12  2  0  0  0  0
 11 16  1  0  0  0  0
 12 13  1  0  0  0  0
 13 14  2  0  0  0  0
 14 15  1  0  0  0  0
 15 16  2  0  0  0  0
 17 18  2  0  0  0  0
 18 19  1  0  0  0  0
 19 20  2  0  0  0  0
 19 21  1  0  0  0  0
 21 22  1  0  0  0  0
 22 23  1  0  0  0  0
 23 24  2  0  0  0  0
 23 28  1  0  0  0  0
 24 25  1  0  0  0  0
 25 26  2  0  0  0  0
 26 27  1  0  0  0  0
 27 28  2  0  0  0  0
 29 30  1  0  0  0  0
 30 31  1  0  0  0  0
 30 35  1  0  0  0  0
 31 32  1  0  0  0  0
 32 33  1  0  0  0  0
 33 34  1  0  0  0  0
 34 35  1  0  0  0  0
M  END
$$$$

 OpenBabel12191814062D

 42 46  0  0  0  0  0  0  0  0999 V2000
   -4.2868   -2.4750    0.0000 O   0  0  0  0  0  0  0  0  0  0  0  0
   -5.0013   -2.8875    0.0000 C   0  0  3  0  0  0  0  0  0  0  0  0
   -5.0013   -3.7125    0.0000 C   0  0  0  0  0  0  0  0  0  0  0  0
   -4.2868   -4.1250    0.0000 O   0  0  0  0  0  0  0  0  0  0  0  0
   -4.2868   -4.9500    0.0000 C   0  0  0  0  0  0  0  0  0  0  0  0
   -3.5724   -5.3625    0.0000 C   0  0  0  0  0  0  0  0  0  0  0  0
   -3.5724   -6.1875    0.0000 C   0  0  0  0  0  0  0  0  0  0  0  0
   -4.2868   -6.6000    0.0000 C   0  0  0  0  0  0  0  0  0  0  0  0
   -4.2868   -7.4250    0.0000 O   0  0  0  0  0  0  0  0  0  0  0  0
   -5.0013   -7.8375    0.0000 C   0  0  0  0  0  0  0  0  0  0  0  0
   -5.0013   -8.6625    0.0000 C   0  0  0  0  0  0  0  0  0  0  0  0
   -4.2868   -9.0750    0.0000 C   0  0  0  0  0  0  0  0  0  0  0  0
   -4.2868   -9.9000    0.0000 C   0  0  0  0  0  0  0  0  0  0  0  0
   -5.0013  -10.3125    0.0000 C   0  0  0  0  0  0  0  0  0  0  0  0
   -5.7158   -9.9000    0.0000 C   0  0  0  0  0  0  0  0  0  0  0  0
   -5.7158   -9.0750    0.0000 C   0  0  0  0  0  0  0  0  0  0  0  0
   -5.0013   -6.1875    0.0000 C   0  0  0  0  0  0  0  0  0  0  0  0
   -5.0013   -5.3625    0.0000 C   0  0  0  0  0  0  0  0  0  0  0  0
   -5.7158   -4.9500    0.0000 C   0  0  0  0  0  0  0  0  0  0  0  0
   -5.7158   -4.1250    0.0000 O   0  0  0  0  0  0  0  0  0  0  0  0
   -6.4302   -5.3625    0.0000 C   0  0  0  0  0  0  0  0  0  0  0  0
   -6.4302   -6.1875    0.0000 C   0  0  0  0  0  0  0  0  0  0  0  0
   -7.1447   -6.6000    0.0000 C   0  0  0  0  0  0  0  0  0  0  0  0
   -7.1447   -7.4250    0.0000 C   0  0  0  0  0  0  0  0  0  0  0  0
   -7.8592   -7.8375    0.0000 C   0  0  0  0  0  0  0  0  0  0  0  0
   -8.5737   -7.4250    0.0000 C   0  0  0  0  0  0  0  0  0  0  0  0
   -8.5737   -6.6000    0.0000 C   0  0  0  0  0  0  0  0  0  0  0  0
   -7.8592   -6.1875    0.0000 C   0  0  0  0  0  0  0  0  0  0  0  0
   -5.7158   -2.4750    0.0000 C   0  0  0  0  0  0  0  0  0  0  0  0
   -5.7158   -1.6500    0.0000 N   0  0  0  0  0  0  0  0  0  0  0  0
   -6.4302   -1.2375    0.0000 C   0  0  0  0  0  0  0  0  0  0  0  0
   -6.4302   -0.4125    0.0000 C   0  0  0  0  0  0  0  0  0  0  0  0
   -5.7158   -0.0000    0.0000 N   0  0  0  0  0  0  0  0  0  0  0  0
   -5.7158    0.8250    0.0000 C   0  0  0  0  0  0  0  0  0  0  0  0
   -6.4302    1.2375    0.0000 C   0  0  0  0  0  0  0  0  0  0  0  0
   -7.1447    0.8250    0.0000 C   0  0  0  0  0  0  0  0  0  0  0  0
   -7.8592    1.2375    0.0000 C   0  0  0  0  0  0  0  0  0  0  0  0
   -7.8592    2.0625    0.0000 C   0  0  0  0  0  0  0  0  0  0  0  0
   -7.1447    2.4750    0.0000 C   0  0  0  0  0  0  0  0  0  0  0  0
   -6.4302    2.0625    0.0000 C   0  0  0  0  0  0  0  0  0  0  0  0
   -5.0013   -0.4125    0.0000 C   0  0  0  0  0  0  0  0  0  0  0  0
   -5.0013   -1.2375    0.0000 C   0  0  0  0  0  0  0  0  0  0  0  0
  1  2  1  0  0  0  0
  2  3  1  0  0  0  0
  2 29  1  0  0  0  0
  3  4  1  0  0  0  0
  4  5  1  0  0  0  0
  5  6  2  0  0  0  0
  5 18  1  0  0  0  0
  6  7  1  0  0  0  0
  7  8  2  0  0  0  0
  8  9  1  0  0  0  0
  8 17  1  0  0  0  0
  9 10  1  0  0  0  0
 10 11  1  0  0  0  0
 11 12  2  0  0  0  0
 11 16  1  0  0  0  0
 12 13  1  0  0  0  0
 13 14  2  0  0  0  0
 14 15  1  0  0  0  0
 15 16  2  0  0  0  0
 17 18  2  0  0  0  0
 18 19  1  0  0  0  0
 19 20  2  0  0  0  0
 19 21  1  0  0  0  0
 21 22  1  0  0  0  0
 22 23  1  0  0  0  0
 23 24  2  0  0  0  0
 23 28  1  0  0  0  0
 24 25  1  0  0  0  0
 25 26  2  0  0  0  0
 26 27  1  0  0  0  0
 27 28  2  0  0  0  0
 29 30  1  0  0  0  0
 30 31  1  0  0  0  0
 30 42  1  0  0  0  0
 31 32  1  0  0  0  0
 32 33  1  0  0  0  0
 33 34  1  0  0  0  0
 33 41  1  0  0  0  0
 34 35  1  0  0  0  0
 35 36  2  0  0  0  0
 35 40  1  0  0  0  0
 36 37  1  0  0  0  0
 37 38  2  0  0  0  0
 38 39  1  0  0  0  0
 39 40  2  0  0  0  0
 41 42  1  0  0  0  0
M  END
$$$$

 OpenBabel12191814062D

 27 29  0  0  0  0  0  0  0  0999 V2000
    2.1434   -3.7125    0.0000 O   0  0  0  0  0  0  0  0  0  0  0  0
    2.1434   -2.8875    0.0000 C   0  0  3  0  0  0  0  0  0  0  0  0
    1.4289   -2.4750    0.0000 C   0  0  0  0  0  0  0  0  0  0  0  0
    0.7145   -2.8875    0.0000 O   0  0  0  0  0  0  0  0  0  0  0  0
    0.0000   -2.4750    0.0000 C   0  0  0  0  0  0  0  0  0  0  0  0
   -0.7145   -2.8875    0.0000 C   0  0  0  0  0  0  0  0  0  0  0  0
   -1.4289   -2.4750    0.0000 C   0  0  0  0  0  0  0  0  0  0  0  0
   -1.4289   -1.6500    0.0000 C   0  0  0  0  0  0  0  0  0  0  0  0
   -0.7145   -1.2375    0.0000 C   0  0  0  0  0  0  0  0  0  0  0  0
    0.0000   -1.6500    0.0000 C   0  0  0  0  0  0  0  0  0  0  0  0
   -0.7145   -0.4125    0.0000 C   0  0  0  0  0  0  0  0  0  0  0  0
    0.0000   -0.0000    0.0000 O   0  0  0  0  0  0  0  0  0  0  0  0
   -1.4289   -0.0000    0.0000 C   0  0  0  0  0  0  0  0  0  0  0  0
   -1.4289    0.8250    0.0000 C   0  0  0  0  0  0  0  0  0  0  0  0
   -2.1434    1.2375    0.0000 C   0  0  0  0  0  0  0  0  0  0  0  0
   -2.8579    0.8250    0.0000 C   0  0  0  0  0  0  0  0  0  0  0  0
   -3.5724    1.2375    0.0000 C   0  0  0  0  0  0  0  0  0  0  0  0
   -3.5724    2.0625    0.0000 C   0  0  0  0  0  0  0  0  0  0  0  0
   -2.8579    2.4750    0.0000 C   0  0  0  0  0  0  0  0  0  0  0  0
   -2.1434    2.0625    0.0000 C   0  0  0  0  0  0  0  0  0  0  0  0
    2.8579   -2.4750    0.0000 C   0  0  0  0  0  0  0  0  0  0  0  0
    3.5724   -2.8875    0.0000 N   0  0  0  0  0  0  0  0  0  0  0  0
    4.2868   -2.4750    0.0000 C   0  0  0  0  0  0  0  0  0  0  0  0
    5.0013   -2.8875    0.0000 C   0  0  0  0  0  0  0  0  0  0  0  0
    5.0013   -3.7125    0.0000 C   0  0  0  0  0  0  0  0  0  0  0  0
    4.2868   -4.1250    0.0000 C   0  0  0  0  0  0  0  0  0  0  0  0
    3.5724   -3.7125    0.0000 C   0  0  0  0  0  0  0  0  0  0  0  0
  1  2  1  0  0  0  0
  2  3  1  0  0  0  0
  2 21  1  0  0  0  0
  3  4  1  0  0  0  0
  4  5  1  0  0  0  0
  5  6  2  0  0  0  0
  5 10  1  0  0  0  0
  6  7  1  0  0  0  0
  7  8  2  0  0  0  0
  8  9  1  0  0  0  0
  9 10  2  0  0  0  0
  9 11  1  0  0  0  0
 11 12  2  0  0  0  0
 11 13  1  0  0  0  0
 13 14  1  0  0  0  0
 14 15  1  0  0  0  0
 15 16  2  0  0  0  0
 15 20  1  0  0  0  0
 16 17  1  0  0  0  0
 17 18  2  0  0  0  0
 18 19  1  0  0  0  0
 19 20  2  0  0  0  0
 21 22  1  0  0  0  0
 22 23  1  0  0  0  0
 22 27  1  0  0  0  0
 23 24  1  0  0  0  0
 24 25  1  0  0  0  0
 25 26  1  0  0  0  0
 26 27  1  0  0  0  0
M  END
$$$$

 OpenBabel12191814062D

 34 37  0  0  0  0  0  0  0  0999 V2000
    2.1434   -3.7125    0.0000 O   0  0  0  0  0  0  0  0  0  0  0  0
    1.4289   -4.1250    0.0000 C   0  0  3  0  0  0  0  0  0  0  0  0
    1.4289   -4.9500    0.0000 C   0  0  0  0  0  0  0  0  0  0  0  0
    2.1434   -5.3625    0.0000 O   0  0  0  0  0  0  0  0  0  0  0  0
    2.1434   -6.1875    0.0000 C   0  0  0  0  0  0  0  0  0  0  0  0
    2.8579   -6.6000    0.0000 C   0  0  0  0  0  0  0  0  0  0  0  0
    2.8579   -7.4250    0.0000 C   0  0  0  0  0  0  0  0  0  0  0  0
    2.1434   -7.8375    0.0000 C   0  0  0  0  0  0  0  0  0  0  0  0
    1.4289   -7.4250    0.0000 C   0  0  0  0  0  0  0  0  0  0  0  0
    1.4289   -6.6000    0.0000 C   0  0  0  0  0  0  0  0  0  0  0  0
    0.7145   -7.8375    0.0000 C   0  0  0  0  0  0  0  0  0  0  0  0
    0.0000   -7.4250    0.0000 O   0  0  0  0  0  0  0  0  0  0  0  0
    0.7145   -8.6625    0.0000 C   0  0  0  0  0  0  0  0  0  0  0  0
    0.0000   -9.0750    0.0000 C   0  0  0  0  0  0  0  0  0  0  0  0
    0.0000   -9.9000    0.0000 C   0  0  0  0  0  0  0  0  0  0  0  0
    0.7145  -10.3125    0.0000 C   0  0  0  0  0  0  0  0  0  0  0  0
    0.7145  -11.1375    0.0000 C   0  0  0  0  0  0  0  0  0  0  0  0
    0.0000  -11.5500    0.0000 C   0  0  0  0  0  0  0  0  0  0  0  0
   -0.7145  -11.1375    0.0000 C   0  0  0  0  0  0  0  0  0  0  0  0
   -0.7145  -10.3125    0.0000 C   0  0  0  0  0  0  0  0  0  0  0  0
    0.7145   -3.7125    0.0000 C   0  0  0  0  0  0  0  0  0  0  0  0
    0.7145   -2.8875    0.0000 N   0  0  0  0  0  0  0  0  0  0  0  0
    0.0000   -2.4750    0.0000 C   0  0  0  0  0  0  0  0  0  0  0  0
    0.0000   -1.6500    0.0000 C   0  0  0  0  0  0  0  0  0  0  0  0
    0.7145   -1.2375    0.0000 N   0  0  0  0  0  0  0  0  0  0  0  0
    1.4289   -1.6500    0.0000 C   0  0  0  0  0  0  0  0  0  0  0  0
    1.4289   -2.4750    0.0000 C   0  0  0  0  0  0  0  0  0  0  0  0
    0.7145   -0.4125    0.0000 C   0  0  0  0  0  0  0  0  0  0  0  0
    0.0000    0.0000    0.0000 C   0  0  0  0  0  0  0  0  0  0  0  0
    0.0000    0.8250    0.0000 C   0  0  0  0  0  0  0  0  0  0  0  0
    0.7145    1.2375    0.0000 C   0  0  0  0  0  0  0  0  0  0  0  0
    0.7145    2.0625    0.0000 F   0  0  0  0  0  0  0  0  0  0  0  0
    1.4289    0.8250    0.0000 C   0  0  0  0  0  0  0  0  0  0  0  0
    1.4289    0.0000    0.0000 C   0  0  0  0  0  0  0  0  0  0  0  0
  1  2  1  0  0  0  0
  2  3  1  0  0  0  0
  2 21  1  0  0  0  0
  3  4  1  0  0  0  0
  4  5  1  0  0  0  0
  5  6  2  0  0  0  0
  5 10  1  0  0  0  0
  6  7  1  0  0  0  0
  7  8  2  0  0  0  0
  8  9  1  0  0  0  0
  9 10  2  0  0  0  0
  9 11  1  0  0  0  0
 11 12  2  0  0  0  0
 11 13  1  0  0  0  0
 13 14  1  0  0  0  0
 14 15  1  0  0  0  0
 15 16  2  0  0  0  0
 15 20  1  0  0  0  0
 16 17  1  0  0  0  0
 17 18  2  0  0  0  0
 18 19  1  0  0  0  0
 19 20  2  0  0  0  0
 21 22  1  0  0  0  0
 22 23  1  0  0  0  0
 22 27  1  0  0  0  0
 23 24  1  0  0  0  0
 24 25  1  0  0  0  0
 25 26  1  0  0  0  0
 25 28  1  0  0  0  0
 26 27  1  0  0  0  0
 28 29  2  0  0  0  0
 28 34  1  0  0  0  0
 29 30  1  0  0  0  0
 30 31  2  0  0  0  0
 31 32  1  0  0  0  0
 31 33  1  0  0  0  0
 33 34  2  0  0  0  0
M  END
$$$$

 OpenBabel12191814062D

 27 29  0  0  0  0  0  0  0  0999 V2000
    2.1434   -3.7125    0.0000 O   0  0  0  0  0  0  0  0  0  0  0  0
    2.1434   -2.8875    0.0000 C   0  0  3  0  0  0  0  0  0  0  0  0
    1.4289   -2.4750    0.0000 C   0  0  0  0  0  0  0  0  0  0  0  0
    0.7145   -2.8875    0.0000 O   0  0  0  0  0  0  0  0  0  0  0  0
    0.0000   -2.4750    0.0000 C   0  0  0  0  0  0  0  0  0  0  0  0
   -0.7145   -2.8875    0.0000 C   0  0  0  0  0  0  0  0  0  0  0  0
   -1.4289   -2.4750    0.0000 C   0  0  0  0  0  0  0  0  0  0  0  0
   -1.4289   -1.6500    0.0000 C   0  0  0  0  0  0  0  0  0  0  0  0
   -0.7145   -1.2375    0.0000 C   0  0  0  0  0  0  0  0  0  0  0  0
    0.0000   -1.6500    0.0000 C   0  0  0  0  0  0  0  0  0  0  0  0
   -0.7145   -0.4125    0.0000 C   0  0  0  0  0  0  0  0  0  0  0  0
    0.0000   -0.0000    0.0000 O   0  0  0  0  0  0  0  0  0  0  0  0
   -1.4289   -0.0000    0.0000 C   0  0  0  0  0  0  0  0  0  0  0  0
   -1.4289    0.8250    0.0000 C   0  0  0  0  0  0  0  0  0  0  0  0
   -2.1434    1.2375    0.0000 C   0  0  0  0  0  0  0  0  0  0  0  0
   -2.8579    0.8250    0.0000 C   0  0  0  0  0  0  0  0  0  0  0  0
   -3.5724    1.2375    0.0000 C   0  0  0  0  0  0  0  0  0  0  0  0
   -3.5724    2.0625    0.0000 C   0  0  0  0  0  0  0  0  0  0  0  0
   -2.8579    2.4750    0.0000 C   0  0  0  0  0  0  0  0  0  0  0  0
   -2.1434    2.0625    0.0000 C   0  0  0  0  0  0  0  0  0  0  0  0
    2.8579   -2.4750    0.0000 C   0  0  0  0  0  0  0  0  0  0  0  0
    3.5724   -2.8875    0.0000 N   0  0  0  0  0  0  0  0  0  0  0  0
    4.2868   -2.4750    0.0000 C   0  0  0  0  0  0  0  0  0  0  0  0
    5.0013   -2.8875    0.0000 C   0  0  0  0  0  0  0  0  0  0  0  0
    5.0013   -3.7125    0.0000 O   0  0  0  0  0  0  0  0  0  0  0  0
    4.2868   -4.1250    0.0000 C   0  0  0  0  0  0  0  0  0  0  0  0
    3.5724   -3.7125    0.0000 C   0  0  0  0  0  0  0  0  0  0  0  0
  1  2  1  0  0  0  0
  2  3  1  0  0  0  0
  2 21  1  0  0  0  0
  3  4  1  0  0  0  0
  4  5  1  0  0  0  0
  5  6  2  0  0  0  0
  5 10  1  0  0  0  0
  6  7  1  0  0  0  0
  7  8  2  0  0  0  0
  8  9  1  0  0  0  0
  9 10  2  0  0  0  0
  9 11  1  0  0  0  0
 11 12  2  0  0  0  0
 11 13  1  0  0  0  0
 13 14  1  0  0  0  0
 14 15  1  0  0  0  0
 15 16  2  0  0  0  0
 15 20  1  0  0  0  0
 16 17  1  0  0  0  0
 17 18  2  0  0  0  0
 18 19  1  0  0  0  0
 19 20  2  0  0  0  0
 21 22  1  0  0  0  0
 22 23  1  0  0  0  0
 22 27  1  0  0  0  0
 23 24  1  0  0  0  0
 24 25  1  0  0  0  0
 25 26  1  0  0  0  0
 26 27  1  0  0  0  0
M  END
$$$$

 OpenBabel12191814062D

 28 31  0  0  0  0  0  0  0  0999 V2000
    3.2789    3.7125    0.0000 O   0  0  0  0  0  0  0  0  0  0  0  0
    2.5645    3.3000    0.0000 C   0  0  3  0  0  0  0  0  0  0  0  0
    2.5645    2.4750    0.0000 C   0  0  0  0  0  0  0  0  0  0  0  0
    3.2789    2.0625    0.0000 O   0  0  0  0  0  0  0  0  0  0  0  0
    3.2789    1.2375    0.0000 C   0  0  0  0  0  0  0  0  0  0  0  0
    3.9934    0.8250    0.0000 C   0  0  0  0  0  0  0  0  0  0  0  0
    3.9934    0.0000    0.0000 C   0  0  0  0  0  0  0  0  0  0  0  0
    3.2789   -0.4125    0.0000 C   0  0  0  0  0  0  0  0  0  0  0  0
    2.5645    0.0000    0.0000 C   0  0  0  0  0  0  0  0  0  0  0  0
    1.7798   -0.2549    0.0000 C   0  0  0  0  0  0  0  0  0  0  0  0
    1.5249   -1.0396    0.0000 C   0  0  0  0  0  0  0  0  0  0  0  0
    1.2949    0.4125    0.0000 C   0  0  3  0  0  0  0  0  0  0  0  0
    1.7798    1.0799    0.0000 C   0  0  0  0  0  0  0  0  0  0  0  0
    1.5249    1.8646    0.0000 O   0  0  0  0  0  0  0  0  0  0  0  0
    2.5645    0.8250    0.0000 C   0  0  0  0  0  0  0  0  0  0  0  0
    0.4699    0.4125    0.0000 C   0  0  0  0  0  0  0  0  0  0  0  0
    0.0574   -0.3020    0.0000 C   0  0  0  0  0  0  0  0  0  0  0  0
   -0.7676   -0.3020    0.0000 C   0  0  0  0  0  0  0  0  0  0  0  0
   -1.1801    0.4125    0.0000 C   0  0  0  0  0  0  0  0  0  0  0  0
   -0.7676    1.1270    0.0000 C   0  0  0  0  0  0  0  0  0  0  0  0
    0.0574    1.1270    0.0000 C   0  0  0  0  0  0  0  0  0  0  0  0
    1.8500    3.7125    0.0000 C   0  0  0  0  0  0  0  0  0  0  0  0
    1.8500    4.5375    0.0000 N   0  0  0  0  0  0  0  0  0  0  0  0
    1.1355    4.9500    0.0000 C   0  0  0  0  0  0  0  0  0  0  0  0
    1.1355    5.7750    0.0000 C   0  0  0  0  0  0  0  0  0  0  0  0
    1.8500    6.1875    0.0000 C   0  0  0  0  0  0  0  0  0  0  0  0
    2.5645    5.7750    0.0000 C   0  0  0  0  0  0  0  0  0  0  0  0
    2.5645    4.9500    0.0000 C   0  0  0  0  0  0  0  0  0  0  0  0
  1  2  1  0  0  0  0
  2  3  1  0  0  0  0
  2 22  1  0  0  0  0
  3  4  1  0  0  0  0
  4  5  1  0  0  0  0
  5  6  2  0  0  0  0
  5 15  1  0  0  0  0
  6  7  1  0  0  0  0
  7  8  2  0  0  0  0
  8  9  1  0  0  0  0
  9 10  1  0  0  0  0
  9 15  2  0  0  0  0
 10 11  2  0  0  0  0
 10 12  1  0  0  0  0
 12 13  1  0  0  0  0
 12 16  1  0  0  0  0
 13 14  2  0  0  0  0
 13 15  1  0  0  0  0
 16 17  2  0  0  0  0
 16 21  1  0  0  0  0
 17 18  1  0  0  0  0
 18 19  2  0  0  0  0
 19 20  1  0  0  0  0
 20 21  2  0  0  0  0
 22 23  1  0  0  0  0
 23 24  1  0  0  0  0
 23 28  1  0  0  0  0
 24 25  1  0  0  0  0
 25 26  1  0  0  0  0
 26 27  1  0  0  0  0
 27 28  1  0  0  0  0
M  END
$$$$

 OpenBabel12191814062D

 22 24  0  0  0  0  0  0  0  0999 V2000
    2.1434   -2.8875    0.0000 O   0  0  0  0  0  0  0  0  0  0  0  0
    2.1434   -2.0625    0.0000 C   0  0  3  0  0  0  0  0  0  0  0  0
    1.4289   -1.6500    0.0000 C   0  0  0  0  0  0  0  0  0  0  0  0
    0.7145   -2.0625    0.0000 O   0  0  0  0  0  0  0  0  0  0  0  0
    0.0000   -1.6500    0.0000 C   0  0  0  0  0  0  0  0  0  0  0  0
   -0.7145   -2.0625    0.0000 C   0  0  0  0  0  0  0  0  0  0  0  0
   -1.4289   -1.6500    0.0000 C   0  0  0  0  0  0  0  0  0  0  0  0
   -1.4289   -0.8250    0.0000 C   0  0  0  0  0  0  0  0  0  0  0  0
   -0.7145   -0.4125    0.0000 C   0  0  0  0  0  0  0  0  0  0  0  0
   -0.5429    0.3945    0.0000 C   0  0  0  0  0  0  0  0  0  0  0  0
   -1.0950    1.0076    0.0000 C   0  0  0  0  0  0  0  0  0  0  0  0
    0.2775    0.4807    0.0000 C   0  0  0  0  0  0  0  0  0  0  0  0
    0.6131   -0.2730    0.0000 C   0  0  0  0  0  0  0  0  0  0  0  0
    1.4201   -0.4445    0.0000 O   0  0  0  0  0  0  0  0  0  0  0  0
    0.0000   -0.8250    0.0000 C   0  0  0  0  0  0  0  0  0  0  0  0
    2.8579   -1.6500    0.0000 C   0  0  0  0  0  0  0  0  0  0  0  0
    3.5724   -2.0625    0.0000 N   0  0  0  0  0  0  0  0  0  0  0  0
    4.2868   -1.6500    0.0000 C   0  0  0  0  0  0  0  0  0  0  0  0
    5.0013   -2.0625    0.0000 C   0  0  0  0  0  0  0  0  0  0  0  0
    5.0013   -2.8875    0.0000 C   0  0  0  0  0  0  0  0  0  0  0  0
    4.2868   -3.3000    0.0000 C   0  0  0  0  0  0  0  0  0  0  0  0
    3.5724   -2.8875    0.0000 C   0  0  0  0  0  0  0  0  0  0  0  0
  1  2  1  0  0  0  0
  2  3  1  0  0  0  0
  2 16  1  0  0  0  0
  3  4  1  0  0  0  0
  4  5  1  0  0  0  0
  5  6  2  0  0  0  0
  5 15  1  0  0  0  0
  6  7  1  0  0  0  0
  7  8  2  0  0  0  0
  8  9  1  0  0  0  0
  9 10  1  0  0  0  0
  9 15  2  0  0  0  0
 10 11  2  0  0  0  0
 10 12  1  0  0  0  0
 12 13  1  0  0  0  0
 13 14  2  0  0  0  0
 13 15  1  0  0  0  0
 16 17  1  0  0  0  0
 17 18  1  0  0  0  0
 17 22  1  0  0  0  0
 18 19  1  0  0  0  0
 19 20  1  0  0  0  0
 20 21  1  0  0  0  0
 21 22  1  0  0  0  0
M  END
$$$$

 OpenBabel12191814062D

 28 31  0  0  0  0  0  0  0  0999 V2000
    3.2789    3.7125    0.0000 O   0  0  0  0  0  0  0  0  0  0  0  0
    2.5645    3.3000    0.0000 C   0  0  3  0  0  0  0  0  0  0  0  0
    2.5645    2.4750    0.0000 C   0  0  0  0  0  0  0  0  0  0  0  0
    3.2789    2.0625    0.0000 O   0  0  0  0  0  0  0  0  0  0  0  0
    3.2789    1.2375    0.0000 C   0  0  0  0  0  0  0  0  0  0  0  0
    3.9934    0.8250    0.0000 C   0  0  0  0  0  0  0  0  0  0  0  0
    3.9934    0.0000    0.0000 C   0  0  0  0  0  0  0  0  0  0  0  0
    3.2789   -0.4125    0.0000 C   0  0  0  0  0  0  0  0  0  0  0  0
    2.5645    0.0000    0.0000 C   0  0  0  0  0  0  0  0  0  0  0  0
    1.7798   -0.2549    0.0000 C   0  0  0  0  0  0  0  0  0  0  0  0
    1.5249   -1.0396    0.0000 O   0  0  0  0  0  0  0  0  0  0  0  0
    1.2949    0.4125    0.0000 C   0  0  3  0  0  0  0  0  0  0  0  0
    1.7798    1.0799    0.0000 C   0  0  0  0  0  0  0  0  0  0  0  0
    1.5249    1.8646    0.0000 C   0  0  0  0  0  0  0  0  0  0  0  0
    2.5645    0.8250    0.0000 C   0  0  0  0  0  0  0  0  0  0  0  0
    0.4699    0.4125    0.0000 C   0  0  0  0  0  0  0  0  0  0  0  0
    0.0574   -0.3020    0.0000 C   0  0  0  0  0  0  0  0  0  0  0  0
   -0.7676   -0.3020    0.0000 C   0  0  0  0  0  0  0  0  0  0  0  0
   -1.1801    0.4125    0.0000 C   0  0  0  0  0  0  0  0  0  0  0  0
   -0.7676    1.1270    0.0000 C   0  0  0  0  0  0  0  0  0  0  0  0
    0.0574    1.1270    0.0000 C   0  0  0  0  0  0  0  0  0  0  0  0
    1.8500    3.7125    0.0000 C   0  0  0  0  0  0  0  0  0  0  0  0
    1.8500    4.5375    0.0000 N   0  0  0  0  0  0  0  0  0  0  0  0
    1.1355    4.9500    0.0000 C   0  0  0  0  0  0  0  0  0  0  0  0
    1.1355    5.7750    0.0000 C   0  0  0  0  0  0  0  0  0  0  0  0
    1.8500    6.1875    0.0000 C   0  0  0  0  0  0  0  0  0  0  0  0
    2.5645    5.7750    0.0000 C   0  0  0  0  0  0  0  0  0  0  0  0
    2.5645    4.9500    0.0000 C   0  0  0  0  0  0  0  0  0  0  0  0
  1  2  1  0  0  0  0
  2  3  1  0  0  0  0
  2 22  1  0  0  0  0
  3  4  1  0  0  0  0
  4  5  1  0  0  0  0
  5  6  2  0  0  0  0
  5 15  1  0  0  0  0
  6  7  1  0  0  0  0
  7  8  2  0  0  0  0
  8  9  1  0  0  0  0
  9 10  1  0  0  0  0
  9 15  2  0  0  0  0
 10 11  2  0  0  0  0
 10 12  1  0  0  0  0
 12 13  1  0  0  0  0
 12 16  1  0  0  0  0
 13 14  2  0  0  0  0
 13 15  1  0  0  0  0
 16 17  2  0  0  0  0
 16 21  1  0  0  0  0
 17 18  1  0  0  0  0
 18 19  2  0  0  0  0
 19 20  1  0  0  0  0
 20 21  2  0  0  0  0
 22 23  1  0  0  0  0
 23 24  1  0  0  0  0
 23 28  1  0  0  0  0
 24 25  1  0  0  0  0
 25 26  1  0  0  0  0
 26 27  1  0  0  0  0
 27 28  1  0  0  0  0
M  END
$$$$

 OpenBabel12191814062D

 22 24  0  0  0  0  0  0  0  0999 V2000
    2.1434   -2.8875    0.0000 O   0  0  0  0  0  0  0  0  0  0  0  0
    2.1434   -2.0625    0.0000 C   0  0  3  0  0  0  0  0  0  0  0  0
    1.4289   -1.6500    0.0000 C   0  0  0  0  0  0  0  0  0  0  0  0
    0.7145   -2.0625    0.0000 O   0  0  0  0  0  0  0  0  0  0  0  0
    0.0000   -1.6500    0.0000 C   0  0  0  0  0  0  0  0  0  0  0  0
   -0.7145   -2.0625    0.0000 C   0  0  0  0  0  0  0  0  0  0  0  0
   -1.4289   -1.6500    0.0000 C   0  0  0  0  0  0  0  0  0  0  0  0
   -1.4289   -0.8250    0.0000 C   0  0  0  0  0  0  0  0  0  0  0  0
   -0.7145   -0.4125    0.0000 C   0  0  0  0  0  0  0  0  0  0  0  0
   -0.5429    0.3945    0.0000 C   0  0  0  0  0  0  0  0  0  0  0  0
   -1.0950    1.0076    0.0000 O   0  0  0  0  0  0  0  0  0  0  0  0
    0.2775    0.4807    0.0000 C   0  0  0  0  0  0  0  0  0  0  0  0
    0.6131   -0.2730    0.0000 C   0  0  0  0  0  0  0  0  0  0  0  0
    1.4201   -0.4445    0.0000 C   0  0  0  0  0  0  0  0  0  0  0  0
    0.0000   -0.8250    0.0000 C   0  0  0  0  0  0  0  0  0  0  0  0
    2.8579   -1.6500    0.0000 C   0  0  0  0  0  0  0  0  0  0  0  0
    3.5724   -2.0625    0.0000 N   0  0  0  0  0  0  0  0  0  0  0  0
    4.2868   -1.6500    0.0000 C   0  0  0  0  0  0  0  0  0  0  0  0
    5.0013   -2.0625    0.0000 C   0  0  0  0  0  0  0  0  0  0  0  0
    5.0013   -2.8875    0.0000 C   0  0  0  0  0  0  0  0  0  0  0  0
    4.2868   -3.3000    0.0000 C   0  0  0  0  0  0  0  0  0  0  0  0
    3.5724   -2.8875    0.0000 C   0  0  0  0  0  0  0  0  0  0  0  0
  1  2  1  0  0  0  0
  2  3  1  0  0  0  0
  2 16  1  0  0  0  0
  3  4  1  0  0  0  0
  4  5  1  0  0  0  0
  5  6  2  0  0  0  0
  5 15  1  0  0  0  0
  6  7  1  0  0  0  0
  7  8  2  0  0  0  0
  8  9  1  0  0  0  0
  9 10  1  0  0  0  0
  9 15  2  0  0  0  0
 10 11  2  0  0  0  0
 10 12  1  0  0  0  0
 12 13  1  0  0  0  0
 13 14  2  0  0  0  0
 13 15  1  0  0  0  0
 16 17  1  0  0  0  0
 17 18  1  0  0  0  0
 17 22  1  0  0  0  0
 18 19  1  0  0  0  0
 19 20  1  0  0  0  0
 20 21  1  0  0  0  0
 21 22  1  0  0  0  0
M  END
$$$$

 OpenBabel12191814062D

 36 40  0  0  0  0  0  0  0  0999 V2000
    1.4289   -4.1250    0.0000 O   0  0  0  0  0  0  0  0  0  0  0  0
    2.1434   -3.7125    0.0000 C   0  0  3  0  0  0  0  0  0  0  0  0
    2.1434   -2.8875    0.0000 C   0  0  0  0  0  0  0  0  0  0  0  0
    1.4289   -2.4750    0.0000 O   0  0  0  0  0  0  0  0  0  0  0  0
    1.4289   -1.6500    0.0000 C   0  0  0  0  0  0  0  0  0  0  0  0
    0.7145   -1.2375    0.0000 C   0  0  0  0  0  0  0  0  0  0  0  0
    0.7145   -0.4125    0.0000 C   0  0  0  0  0  0  0  0  0  0  0  0
    1.4289    0.0000    0.0000 C   0  0  0  0  0  0  0  0  0  0  0  0
    2.1434   -0.4125    0.0000 C   0  0  0  0  0  0  0  0  0  0  0  0
    2.8579    0.0000    0.0000 N   0  0  0  0  0  0  0  0  0  0  0  0
    3.5724   -0.4125    0.0000 C   0  0  0  0  0  0  0  0  0  0  0  0
    3.5724   -1.2375    0.0000 C   0  0  0  0  0  0  0  0  0  0  0  0
    2.8579   -1.6500    0.0000 C   0  0  0  0  0  0  0  0  0  0  0  0
    2.1434   -1.2375    0.0000 C   0  0  0  0  0  0  0  0  0  0  0  0
    2.8579   -4.1250    0.0000 C   0  0  0  0  0  0  0  0  0  0  0  0
    2.8579   -4.9500    0.0000 N   0  0  0  0  0  0  0  0  0  0  0  0
    3.5724   -5.3625    0.0000 C   0  0  0  0  0  0  0  0  0  0  0  0
    3.5724   -6.1875    0.0000 C   0  0  0  0  0  0  0  0  0  0  0  0
    2.8579   -6.6000    0.0000 N   0  0  0  0  0  0  0  0  0  0  0  0
    2.1434   -6.1875    0.0000 C   0  0  0  0  0  0  0  0  0  0  0  0
    2.1434   -5.3625    0.0000 C   0  0  0  0  0  0  0  0  0  0  0  0
    2.8579   -7.4250    0.0000 C   0  0  0  0  0  0  0  0  0  0  0  0
    2.1434   -7.8375    0.0000 O   0  0  0  0  0  0  0  0  0  0  0  0
    3.5724   -7.8375    0.0000 C   0  0  0  0  0  0  0  0  0  0  0  0
    3.5724   -8.6625    0.0000 C   0  0  0  0  0  0  0  0  0  0  0  0
    4.2868   -9.0750    0.0000 C   0  0  0  0  0  0  0  0  0  0  0  0
    4.2868   -9.9000    0.0000 C   0  0  0  0  0  0  0  0  0  0  0  0
    3.5724  -10.3125    0.0000 C   0  0  0  0  0  0  0  0  0  0  0  0
    2.8579   -9.9000    0.0000 C   0  0  0  0  0  0  0  0  0  0  0  0
    2.8579   -9.0750    0.0000 C   0  0  0  0  0  0  0  0  0  0  0  0
    4.2868   -7.4250    0.0000 C   0  0  0  0  0  0  0  0  0  0  0  0
    4.2868   -6.6000    0.0000 C   0  0  0  0  0  0  0  0  0  0  0  0
    5.0013   -6.1875    0.0000 C   0  0  0  0  0  0  0  0  0  0  0  0
    5.7158   -6.6000    0.0000 C   0  0  0  0  0  0  0  0  0  0  0  0
    5.7158   -7.4250    0.0000 C   0  0  0  0  0  0  0  0  0  0  0  0
    5.0013   -7.8375    0.0000 C   0  0  0  0  0  0  0  0  0  0  0  0
  1  2  1  0  0  0  0
  2  3  1  0  0  0  0
  2 15  1  0  0  0  0
  3  4  1  0  0  0  0
  4  5  1  0  0  0  0
  5  6  2  0  0  0  0
  5 14  1  0  0  0  0
  6  7  1  0  0  0  0
  7  8  2  0  0  0  0
  8  9  1  0  0  0  0
  9 10  2  0  0  0  0
  9 14  1  0  0  0  0
 10 11  1  0  0  0  0
 11 12  2  0  0  0  0
 12 13  1  0  0  0  0
 13 14  2  0  0  0  0
 15 16  1  0  0  0  0
 16 17  1  0  0  0  0
 16 21  1  0  0  0  0
 17 18  1  0  0  0  0
 18 19  1  0  0  0  0
 19 20  1  0  0  0  0
 19 22  1  0  0  0  0
 20 21  1  0  0  0  0
 22 23  2  0  0  0  0
 22 24  1  0  0  0  0
 24 25  1  0  0  0  0
 24 31  1  0  0  0  0
 25 26  2  0  0  0  0
 25 30  1  0  0  0  0
 26 27  1  0  0  0  0
 27 28  2  0  0  0  0
 28 29  1  0  0  0  0
 29 30  2  0  0  0  0
 31 32  2  0  0  0  0
 31 36  1  0  0  0  0
 32 33  1  0  0  0  0
 33 34  2  0  0  0  0
 34 35  1  0  0  0  0
 35 36  2  0  0  0  0
M  END
$$$$

 OpenBabel12191814062D

 37 43  0  0  0  0  0  0  0  0999 V2000
    2.3747    3.6320    0.0000 O   0  0  0  0  0  0  0  0  0  0  0  0
    3.0892    4.0445    0.0000 C   0  0  3  0  0  0  0  0  0  0  0  0
    3.0892    4.8695    0.0000 C   0  0  0  0  0  0  0  0  0  0  0  0
    2.3747    5.2820    0.0000 O   0  0  0  0  0  0  0  0  0  0  0  0
    2.3747    6.1070    0.0000 C   0  0  0  0  0  0  0  0  0  0  0  0
    1.6603    6.5195    0.0000 C   0  0  0  0  0  0  0  0  0  0  0  0
    1.6603    7.3445    0.0000 C   0  0  0  0  0  0  0  0  0  0  0  0
    2.3747    7.7570    0.0000 C   0  0  0  0  0  0  0  0  0  0  0  0
    3.0892    7.3445    0.0000 C   0  0  0  0  0  0  0  0  0  0  0  0
    3.8037    7.7570    0.0000 N   0  0  0  0  0  0  0  0  0  0  0  0
    4.5181    7.3445    0.0000 C   0  0  0  0  0  0  0  0  0  0  0  0
    4.5181    6.5195    0.0000 C   0  0  0  0  0  0  0  0  0  0  0  0
    3.8037    6.1070    0.0000 C   0  0  0  0  0  0  0  0  0  0  0  0
    3.0892    6.5195    0.0000 C   0  0  0  0  0  0  0  0  0  0  0  0
    3.8037    3.6320    0.0000 C   0  0  0  0  0  0  0  0  0  0  0  0
    3.8037    2.8070    0.0000 N   0  0  0  0  0  0  0  0  0  0  0  0
    4.5181    2.3945    0.0000 C   0  0  0  0  0  0  0  0  0  0  0  0
    4.5181    1.5695    0.0000 C   0  0  0  0  0  0  0  0  0  0  0  0
    3.8037    1.1570    0.0000 N   0  0  3  0  0  0  0  0  0  0  0  0
    3.0892    1.5695    0.0000 C   0  0  0  0  0  0  0  0  0  0  0  0
    3.0892    2.3945    0.0000 C   0  0  0  0  0  0  0  0  0  0  0  0
    3.8037    0.3320    0.0000 C   0  0  3  0  0  0  0  0  0  0  0  0
    4.5470   -0.0260    0.0000 C   0  0  0  0  0  0  0  0  0  0  0  0
    5.1517    0.5352    0.0000 C   0  0  0  0  0  0  0  0  0  0  0  0
    5.9401    0.2920    0.0000 C   0  0  0  0  0  0  0  0  0  0  0  0
    6.1237   -0.5123    0.0000 C   0  0  0  0  0  0  0  0  0  0  0  0
    5.5189   -1.0735    0.0000 C   0  0  0  0  0  0  0  0  0  0  0  0
    4.7305   -0.8303    0.0000 C   0  0  0  0  0  0  0  0  0  0  0  0
    4.2162   -1.4753    0.0000 C   0  0  3  0  0  0  0  0  0  0  0  0
    3.8037   -2.1898    0.0000 C   0  0  0  0  0  0  0  0  0  0  0  0
    3.3912   -1.4753    0.0000 C   0  0  3  0  0  0  0  0  0  0  0  0
    2.8768   -0.8303    0.0000 C   0  0  0  0  0  0  0  0  0  0  0  0
    2.0884   -1.0735    0.0000 C   0  0  0  0  0  0  0  0  0  0  0  0
    1.4837   -0.5123    0.0000 C   0  0  0  0  0  0  0  0  0  0  0  0
    1.6673    0.2920    0.0000 C   0  0  0  0  0  0  0  0  0  0  0  0
    2.4556    0.5352    0.0000 C   0  0  0  0  0  0  0  0  0  0  0  0
    3.0604   -0.0260    0.0000 C   0  0  0  0  0  0  0  0  0  0  0  0
  1  2  1  0  0  0  0
  2  3  1  0  0  0  0
  2 15  1  0  0  0  0
  3  4  1  0  0  0  0
  4  5  1  0  0  0  0
  5  6  2  0  0  0  0
  5 14  1  0  0  0  0
  6  7  1  0  0  0  0
  7  8  2  0  0  0  0
  8  9  1  0  0  0  0
  9 10  2  0  0  0  0
  9 14  1  0  0  0  0
 10 11  1  0  0  0  0
 11 12  2  0  0  0  0
 12 13  1  0  0  0  0
 13 14  2  0  0  0  0
 15 16  1  0  0  0  0
 16 17  1  0  0  0  0
 16 21  1  0  0  0  0
 17 18  1  0  0  0  0
 18 19  1  0  0  0  0
 19 20  1  0  0  0  0
 19 22  1  0  0  0  0
 20 21  1  0  0  0  0
 22 23  1  0  0  0  0
 22 37  1  0  0  0  0
 23 24  2  0  0  0  0
 23 28  1  0  0  0  0
 24 25  1  0  0  0  0
 25 26  2  0  0  0  0
 26 27  1  0  0  0  0
 27 28  2  0  0  0  0
 28 29  1  0  0  0  0
 29 30  1  0  0  0  0
 29 31  1  0  0  0  0
 30 31  1  0  0  0  0
 31 32  1  0  0  0  0
 32 33  2  0  0  0  0
 32 37  1  0  0  0  0
 33 34  1  0  0  0  0
 34 35  2  0  0  0  0
 35 36  1  0  0  0  0
 36 37  2  0  0  0  0
M  END
$$$$

 OpenBabel12191814062D

 36 41  0  0  0  0  0  0  0  0999 V2000
    2.3747    3.6320    0.0000 O   0  0  0  0  0  0  0  0  0  0  0  0
    3.0892    4.0445    0.0000 C   0  0  3  0  0  0  0  0  0  0  0  0
    3.0892    4.8695    0.0000 C   0  0  0  0  0  0  0  0  0  0  0  0
    2.3747    5.2820    0.0000 O   0  0  0  0  0  0  0  0  0  0  0  0
    2.3747    6.1070    0.0000 C   0  0  0  0  0  0  0  0  0  0  0  0
    1.6603    6.5195    0.0000 C   0  0  0  0  0  0  0  0  0  0  0  0
    1.6603    7.3445    0.0000 C   0  0  0  0  0  0  0  0  0  0  0  0
    2.3747    7.7570    0.0000 C   0  0  0  0  0  0  0  0  0  0  0  0
    3.0892    7.3445    0.0000 C   0  0  0  0  0  0  0  0  0  0  0  0
    3.8037    7.7570    0.0000 N   0  0  0  0  0  0  0  0  0  0  0  0
    4.5181    7.3445    0.0000 C   0  0  0  0  0  0  0  0  0  0  0  0
    4.5181    6.5195    0.0000 C   0  0  0  0  0  0  0  0  0  0  0  0
    3.8037    6.1070    0.0000 C   0  0  0  0  0  0  0  0  0  0  0  0
    3.0892    6.5195    0.0000 C   0  0  0  0  0  0  0  0  0  0  0  0
    3.8037    3.6320    0.0000 C   0  0  0  0  0  0  0  0  0  0  0  0
    3.8037    2.8070    0.0000 N   0  0  0  0  0  0  0  0  0  0  0  0
    4.5181    2.3945    0.0000 C   0  0  0  0  0  0  0  0  0  0  0  0
    4.5181    1.5695    0.0000 C   0  0  0  0  0  0  0  0  0  0  0  0
    3.8037    1.1570    0.0000 N   0  0  3  0  0  0  0  0  0  0  0  0
    3.0892    1.5695    0.0000 C   0  0  0  0  0  0  0  0  0  0  0  0
    3.0892    2.3945    0.0000 C   0  0  0  0  0  0  0  0  0  0  0  0
    3.8037    0.3320    0.0000 C   0  0  0  0  0  0  0  0  0  0  0  0
    4.5470   -0.0260    0.0000 C   0  0  0  0  0  0  0  0  0  0  0  0
    5.1517    0.5352    0.0000 C   0  0  0  0  0  0  0  0  0  0  0  0
    5.9401    0.2920    0.0000 C   0  0  0  0  0  0  0  0  0  0  0  0
    6.1237   -0.5123    0.0000 C   0  0  0  0  0  0  0  0  0  0  0  0
    5.5189   -1.0735    0.0000 C   0  0  0  0  0  0  0  0  0  0  0  0
    4.7305   -0.8303    0.0000 C   0  0  0  0  0  0  0  0  0  0  0  0
    4.2162   -1.4753    0.0000 C   0  0  0  0  0  0  0  0  0  0  0  0
    3.3912   -1.4753    0.0000 C   0  0  0  0  0  0  0  0  0  0  0  0
    2.8768   -0.8303    0.0000 C   0  0  0  0  0  0  0  0  0  0  0  0
    2.0884   -1.0735    0.0000 C   0  0  0  0  0  0  0  0  0  0  0  0
    1.4837   -0.5123    0.0000 C   0  0  0  0  0  0  0  0  0  0  0  0
    1.6673    0.2920    0.0000 C   0  0  0  0  0  0  0  0  0  0  0  0
    2.4556    0.5352    0.0000 C   0  0  0  0  0  0  0  0  0  0  0  0
    3.0604   -0.0260    0.0000 C   0  0  0  0  0  0  0  0  0  0  0  0
  1  2  1  0  0  0  0
  2  3  1  0  0  0  0
  2 15  1  0  0  0  0
  3  4  1  0  0  0  0
  4  5  1  0  0  0  0
  5  6  2  0  0  0  0
  5 14  1  0  0  0  0
  6  7  1  0  0  0  0
  7  8  2  0  0  0  0
  8  9  1  0  0  0  0
  9 10  2  0  0  0  0
  9 14  1  0  0  0  0
 10 11  1  0  0  0  0
 11 12  2  0  0  0  0
 12 13  1  0  0  0  0
 13 14  2  0  0  0  0
 15 16  1  0  0  0  0
 16 17  1  0  0  0  0
 16 21  1  0  0  0  0
 17 18  1  0  0  0  0
 18 19  1  0  0  0  0
 19 20  1  0  0  0  0
 19 22  1  0  0  0  0
 20 21  1  0  0  0  0
 22 23  1  0  0  0  0
 22 36  1  0  0  0  0
 23 24  2  0  0  0  0
 23 28  1  0  0  0  0
 24 25  1  0  0  0  0
 25 26  2  0  0  0  0
 26 27  1  0  0  0  0
 27 28  2  0  0  0  0
 28 29  1  0  0  0  0
 29 30  1  0  0  0  0
 30 31  1  0  0  0  0
 31 32  2  0  0  0  0
 31 36  1  0  0  0  0
 32 33  1  0  0  0  0
 33 34  2  0  0  0  0
 34 35  1  0  0  0  0
 35 36  2  0  0  0  0
M  END
$$$$

 OpenBabel12191814062D

 32 35  0  0  0  0  0  0  0  0999 V2000
    5.5212   -1.4429    0.0000 O   0  0  0  0  0  0  0  0  0  0  0  0
    4.8067   -1.8554    0.0000 C   0  0  3  0  0  0  0  0  0  0  0  0
    4.8067   -2.6804    0.0000 C   0  0  0  0  0  0  0  0  0  0  0  0
    5.5212   -3.0929    0.0000 O   0  0  0  0  0  0  0  0  0  0  0  0
    5.5212   -3.9179    0.0000 C   0  0  0  0  0  0  0  0  0  0  0  0
    6.2357   -4.3304    0.0000 C   0  0  0  0  0  0  0  0  0  0  0  0
    6.2357   -5.1554    0.0000 C   0  0  0  0  0  0  0  0  0  0  0  0
    5.5212   -5.5679    0.0000 C   0  0  0  0  0  0  0  0  0  0  0  0
    4.8067   -5.1554    0.0000 C   0  0  0  0  0  0  0  0  0  0  0  0
    4.8067   -4.3304    0.0000 C   0  0  0  0  0  0  0  0  0  0  0  0
    4.0923   -3.9179    0.0000 C   0  0  0  0  0  0  0  0  0  0  0  0
    4.0923   -3.0929    0.0000 O   0  0  0  0  0  0  0  0  0  0  0  0
    3.3778   -4.3304    0.0000 C   0  0  0  0  0  0  0  0  0  0  0  0
    3.3778   -5.1554    0.0000 C   0  0  0  0  0  0  0  0  0  0  0  0
    2.6633   -5.5679    0.0000 C   0  0  0  0  0  0  0  0  0  0  0  0
    1.9488   -5.1554    0.0000 C   0  0  0  0  0  0  0  0  0  0  0  0
    1.9488   -4.3304    0.0000 C   0  0  0  0  0  0  0  0  0  0  0  0
    2.6633   -3.9179    0.0000 C   0  0  0  0  0  0  0  0  0  0  0  0
    4.0923   -1.4429    0.0000 C   0  0  0  0  0  0  0  0  0  0  0  0
    4.0923   -0.6179    0.0000 N   0  0  0  0  0  0  0  0  0  0  0  0
    3.3778   -0.2054    0.0000 C   0  0  0  0  0  0  0  0  0  0  0  0
    3.3778    0.6196    0.0000 C   0  0  0  0  0  0  0  0  0  0  0  0
    4.0923    1.0321    0.0000 C   0  0  3  0  0  0  0  0  0  0  0  0
    3.5620    1.6641    0.0000 O   0  0  0  0  0  0  0  0  0  0  0  0
    4.8067    0.6196    0.0000 C   0  0  0  0  0  0  0  0  0  0  0  0
    4.8067   -0.2054    0.0000 C   0  0  0  0  0  0  0  0  0  0  0  0
    4.6226    1.6641    0.0000 C   0  0  0  0  0  0  0  0  0  0  0  0
    4.3404    2.4393    0.0000 C   0  0  0  0  0  0  0  0  0  0  0  0
    4.8707    3.0713    0.0000 C   0  0  0  0  0  0  0  0  0  0  0  0
    5.6832    2.9281    0.0000 C   0  0  0  0  0  0  0  0  0  0  0  0
    5.9653    2.1528    0.0000 C   0  0  0  0  0  0  0  0  0  0  0  0
    5.4350    1.5208    0.0000 C   0  0  0  0  0  0  0  0  0  0  0  0
  1  2  1  0  0  0  0
  2  3  1  0  0  0  0
  2 19  1  0  0  0  0
  3  4  1  0  0  0  0
  4  5  1  0  0  0  0
  5  6  2  0  0  0  0
  5 10  1  0  0  0  0
  6  7  1  0  0  0  0
  7  8  2  0  0  0  0
  8  9  1  0  0  0  0
  9 10  2  0  0  0  0
 10 11  1  0  0  0  0
 11 12  2  0  0  0  0
 11 13  1  0  0  0  0
 13 14  2  0  0  0  0
 13 18  1  0  0  0  0
 14 15  1  0  0  0  0
 15 16  2  0  0  0  0
 16 17  1  0  0  0  0
 17 18  2  0  0  0  0
 19 20  1  0  0  0  0
 20 21  1  0  0  0  0
 20 26  1  0  0  0  0
 21 22  1  0  0  0  0
 22 23  1  0  0  0  0
 23 24  1  0  0  0  0
 23 25  1  0  0  0  0
 23 27  1  0  0  0  0
 25 26  1  0  0  0  0
 27 28  2  0  0  0  0
 27 32  1  0  0  0  0
 28 29  1  0  0  0  0
 29 30  2  0  0  0  0
 30 31  1  0  0  0  0
 31 32  2  0  0  0  0
M  END
$$$$

 OpenBabel12191814062D

 32 35  0  0  0  0  0  0  0  0999 V2000
    5.0013   -3.7125    0.0000 O   0  0  0  0  0  0  0  0  0  0  0  0
    5.0013   -2.8875    0.0000 C   0  0  3  0  0  0  0  0  0  0  0  0
    4.2868   -2.4750    0.0000 C   0  0  0  0  0  0  0  0  0  0  0  0
    3.5724   -2.8875    0.0000 O   0  0  0  0  0  0  0  0  0  0  0  0
    3.5724   -3.7125    0.0000 C   0  0  0  0  0  0  0  0  0  0  0  0
    4.2868   -4.1250    0.0000 C   0  0  0  0  0  0  0  0  0  0  0  0
    4.2868   -4.9500    0.0000 C   0  0  0  0  0  0  0  0  0  0  0  0
    3.5724   -5.3625    0.0000 C   0  0  0  0  0  0  0  0  0  0  0  0
    2.8579   -4.9500    0.0000 C   0  0  0  0  0  0  0  0  0  0  0  0
    2.8579   -4.1250    0.0000 C   0  0  0  0  0  0  0  0  0  0  0  0
    2.1434   -3.7125    0.0000 C   0  0  0  0  0  0  0  0  0  0  0  0
    2.1434   -2.8875    0.0000 O   0  0  0  0  0  0  0  0  0  0  0  0
    1.4289   -4.1250    0.0000 C   0  0  0  0  0  0  0  0  0  0  0  0
    1.4289   -4.9500    0.0000 C   0  0  0  0  0  0  0  0  0  0  0  0
    0.7145   -5.3625    0.0000 C   0  0  0  0  0  0  0  0  0  0  0  0
    0.0000   -4.9500    0.0000 C   0  0  0  0  0  0  0  0  0  0  0  0
    0.0000   -4.1250    0.0000 C   0  0  0  0  0  0  0  0  0  0  0  0
    0.7145   -3.7125    0.0000 C   0  0  0  0  0  0  0  0  0  0  0  0
    5.7158   -2.4750    0.0000 C   0  0  0  0  0  0  0  0  0  0  0  0
    6.4302   -2.8875    0.0000 N   0  0  0  0  0  0  0  0  0  0  0  0
    7.1447   -2.4750    0.0000 C   0  0  0  0  0  0  0  0  0  0  0  0
    7.8592   -2.8875    0.0000 C   0  0  0  0  0  0  0  0  0  0  0  0
    7.8592   -3.7125    0.0000 N   0  0  0  0  0  0  0  0  0  0  0  0
    7.1447   -4.1250    0.0000 C   0  0  0  0  0  0  0  0  0  0  0  0
    6.4302   -3.7125    0.0000 C   0  0  0  0  0  0  0  0  0  0  0  0
    8.5737   -4.1250    0.0000 C   0  0  0  0  0  0  0  0  0  0  0  0
    9.2881   -3.7125    0.0000 C   0  0  0  0  0  0  0  0  0  0  0  0
   10.0026   -4.1250    0.0000 C   0  0  0  0  0  0  0  0  0  0  0  0
   10.0026   -4.9500    0.0000 C   0  0  0  0  0  0  0  0  0  0  0  0
   10.7171   -5.3625    0.0000 F   0  0  0  0  0  0  0  0  0  0  0  0
    9.2881   -5.3625    0.0000 C   0  0  0  0  0  0  0  0  0  0  0  0
    8.5737   -4.9500    0.0000 C   0  0  0  0  0  0  0  0  0  0  0  0
  1  2  1  0  0  0  0
  2  3  1  0  0  0  0
  2 19  1  0  0  0  0
  3  4  1  0  0  0  0
  4  5  1  0  0  0  0
  5  6  2  0  0  0  0
  5 10  1  0  0  0  0
  6  7  1  0  0  0  0
  7  8  2  0  0  0  0
  8  9  1  0  0  0  0
  9 10  2  0  0  0  0
 10 11  1  0  0  0  0
 11 12  2  0  0  0  0
 11 13  1  0  0  0  0
 13 14  2  0  0  0  0
 13 18  1  0  0  0  0
 14 15  1  0  0  0  0
 15 16  2  0  0  0  0
 16 17  1  0  0  0  0
 17 18  2  0  0  0  0
 19 20  1  0  0  0  0
 20 21  1  0  0  0  0
 20 25  1  0  0  0  0
 21 22  1  0  0  0  0
 22 23  1  0  0  0  0
 23 24  1  0  0  0  0
 23 26  1  0  0  0  0
 24 25  1  0  0  0  0
 26 27  2  0  0  0  0
 26 32  1  0  0  0  0
 27 28  1  0  0  0  0
 28 29  2  0  0  0  0
 29 30  1  0  0  0  0
 29 31  1  0  0  0  0
 31 32  2  0  0  0  0
M  END
$$$$

 OpenBabel12191814062D

 37 41  0  0  0  0  0  0  0  0999 V2000
    5.0013   -2.8875    0.0000 O   0  0  0  0  0  0  0  0  0  0  0  0
    4.2868   -2.4750    0.0000 C   0  0  3  0  0  0  0  0  0  0  0  0
    3.5724   -2.8875    0.0000 C   0  0  0  0  0  0  0  0  0  0  0  0
    3.5724   -3.7125    0.0000 O   0  0  0  0  0  0  0  0  0  0  0  0
    2.8579   -4.1250    0.0000 C   0  0  0  0  0  0  0  0  0  0  0  0
    2.8579   -4.9500    0.0000 C   0  0  0  0  0  0  0  0  0  0  0  0
    2.1434   -5.3625    0.0000 C   0  0  0  0  0  0  0  0  0  0  0  0
    1.4289   -4.9500    0.0000 C   0  0  0  0  0  0  0  0  0  0  0  0
    1.4289   -4.1250    0.0000 C   0  0  0  0  0  0  0  0  0  0  0  0
    2.1434   -3.7125    0.0000 C   0  0  0  0  0  0  0  0  0  0  0  0
    2.1434   -2.8875    0.0000 C   0  0  0  0  0  0  0  0  0  0  0  0
    2.8579   -2.4750    0.0000 O   0  0  0  0  0  0  0  0  0  0  0  0
    1.4289   -2.4750    0.0000 C   0  0  0  0  0  0  0  0  0  0  0  0
    1.4289   -1.6500    0.0000 C   0  0  0  0  0  0  0  0  0  0  0  0
    0.7145   -1.2375    0.0000 C   0  0  0  0  0  0  0  0  0  0  0  0
    0.7145   -0.4125    0.0000 C   0  0  0  0  0  0  0  0  0  0  0  0
    1.4289    0.0000    0.0000 C   0  0  0  0  0  0  0  0  0  0  0  0
    2.1434   -0.4125    0.0000 C   0  0  0  0  0  0  0  0  0  0  0  0
    2.8579    0.0000    0.0000 C   0  0  0  0  0  0  0  0  0  0  0  0
    3.5724   -0.4125    0.0000 C   0  0  0  0  0  0  0  0  0  0  0  0
    3.5724   -1.2375    0.0000 C   0  0  0  0  0  0  0  0  0  0  0  0
    2.8579   -1.6500    0.0000 C   0  0  0  0  0  0  0  0  0  0  0  0
    2.1434   -1.2375    0.0000 C   0  0  0  0  0  0  0  0  0  0  0  0
    4.2868   -1.6500    0.0000 C   0  0  0  0  0  0  0  0  0  0  0  0
    5.0013   -1.2375    0.0000 N   0  0  0  0  0  0  0  0  0  0  0  0
    5.0013   -0.4125    0.0000 C   0  0  0  0  0  0  0  0  0  0  0  0
    5.7158   -0.0000    0.0000 C   0  0  0  0  0  0  0  0  0  0  0  0
    6.4302   -0.4125    0.0000 C   0  0  3  0  0  0  0  0  0  0  0  0
    6.7124    0.3627    0.0000 O   0  0  0  0  0  0  0  0  0  0  0  0
    6.4302   -1.2375    0.0000 C   0  0  0  0  0  0  0  0  0  0  0  0
    5.7158   -1.6500    0.0000 C   0  0  0  0  0  0  0  0  0  0  0  0
    7.2427   -0.5558    0.0000 C   0  0  0  0  0  0  0  0  0  0  0  0
    7.7730    0.0762    0.0000 C   0  0  0  0  0  0  0  0  0  0  0  0
    8.5855   -0.0670    0.0000 C   0  0  0  0  0  0  0  0  0  0  0  0
    8.8676   -0.8423    0.0000 C   0  0  0  0  0  0  0  0  0  0  0  0
    8.3373   -1.4743    0.0000 C   0  0  0  0  0  0  0  0  0  0  0  0
    7.5249   -1.3310    0.0000 C   0  0  0  0  0  0  0  0  0  0  0  0
  1  2  1  0  0  0  0
  2  3  1  0  0  0  0
  2 24  1  0  0  0  0
  3  4  1  0  0  0  0
  4  5  1  0  0  0  0
  5  6  2  0  0  0  0
  5 10  1  0  0  0  0
  6  7  1  0  0  0  0
  7  8  2  0  0  0  0
  8  9  1  0  0  0  0
  9 10  2  0  0  0  0
 10 11  1  0  0  0  0
 11 12  2  0  0  0  0
 11 13  1  0  0  0  0
 13 14  1  0  0  0  0
 14 15  2  0  0  0  0
 14 23  1  0  0  0  0
 15 16  1  0  0  0  0
 16 17  2  0  0  0  0
 17 18  1  0  0  0  0
 18 19  2  0  0  0  0
 18 23  1  0  0  0  0
 19 20  1  0  0  0  0
 20 21  2  0  0  0  0
 21 22  1  0  0  0  0
 22 23  2  0  0  0  0
 24 25  1  0  0  0  0
 25 26  1  0  0  0  0
 25 31  1  0  0  0  0
 26 27  1  0  0  0  0
 27 28  1  0  0  0  0
 28 29  1  0  0  0  0
 28 30  1  0  0  0  0
 28 32  1  0  0  0  0
 30 31  1  0  0  0  0
 32 33  2  0  0  0  0
 32 37  1  0  0  0  0
 33 34  1  0  0  0  0
 34 35  2  0  0  0  0
 35 36  1  0  0  0  0
 36 37  2  0  0  0  0
M  END
$$$$

 OpenBabel12191814062D

 38 42  0  0  0  0  0  0  0  0999 V2000
    2.1434   -6.1875    0.0000 O   0  0  0  0  0  0  0  0  0  0  0  0
    2.1434   -5.3625    0.0000 C   0  0  3  0  0  0  0  0  0  0  0  0
    1.4289   -4.9500    0.0000 C   0  0  0  0  0  0  0  0  0  0  0  0
    0.7145   -5.3625    0.0000 O   0  0  0  0  0  0  0  0  0  0  0  0
    0.0000   -4.9500    0.0000 C   0  0  0  0  0  0  0  0  0  0  0  0
   -0.7145   -5.3625    0.0000 C   0  0  0  0  0  0  0  0  0  0  0  0
   -1.4289   -4.9500    0.0000 C   0  0  0  0  0  0  0  0  0  0  0  0
   -1.4289   -4.1250    0.0000 C   0  0  0  0  0  0  0  0  0  0  0  0
   -0.7145   -3.7125    0.0000 C   0  0  0  0  0  0  0  0  0  0  0  0
    0.0000   -4.1250    0.0000 C   0  0  0  0  0  0  0  0  0  0  0  0
    0.7145   -3.7125    0.0000 C   0  0  0  0  0  0  0  0  0  0  0  0
    1.4289   -4.1250    0.0000 O   0  0  0  0  0  0  0  0  0  0  0  0
    0.7145   -2.8875    0.0000 C   0  0  0  0  0  0  0  0  0  0  0  0
    1.4289   -2.4750    0.0000 C   0  0  0  0  0  0  0  0  0  0  0  0
    1.4289   -1.6500    0.0000 C   0  0  0  0  0  0  0  0  0  0  0  0
    0.7145   -1.2375    0.0000 C   0  0  0  0  0  0  0  0  0  0  0  0
    0.7145   -0.4125    0.0000 C   0  0  0  0  0  0  0  0  0  0  0  0
    1.4289    0.0000    0.0000 C   0  0  0  0  0  0  0  0  0  0  0  0
    2.1434   -0.4125    0.0000 C   0  0  0  0  0  0  0  0  0  0  0  0
    2.8579    0.0000    0.0000 C   0  0  0  0  0  0  0  0  0  0  0  0
    3.5724   -0.4125    0.0000 C   0  0  0  0  0  0  0  0  0  0  0  0
    3.5724   -1.2375    0.0000 C   0  0  0  0  0  0  0  0  0  0  0  0
    2.8579   -1.6500    0.0000 C   0  0  0  0  0  0  0  0  0  0  0  0
    2.1434   -1.2375    0.0000 C   0  0  0  0  0  0  0  0  0  0  0  0
    2.8579   -4.9500    0.0000 C   0  0  0  0  0  0  0  0  0  0  0  0
    3.5724   -5.3625    0.0000 N   0  0  0  0  0  0  0  0  0  0  0  0
    4.2868   -4.9500    0.0000 C   0  0  0  0  0  0  0  0  0  0  0  0
    5.0013   -5.3625    0.0000 C   0  0  0  0  0  0  0  0  0  0  0  0
    5.0013   -6.1875    0.0000 C   0  0  3  0  0  0  0  0  0  0  0  0
    5.8138   -6.0442    0.0000 O   0  0  0  0  0  0  0  0  0  0  0  0
    4.2868   -6.6000    0.0000 C   0  0  0  0  0  0  0  0  0  0  0  0
    3.5724   -6.1875    0.0000 C   0  0  0  0  0  0  0  0  0  0  0  0
    5.2835   -6.9627    0.0000 C   0  0  0  0  0  0  0  0  0  0  0  0
    6.0959   -7.1060    0.0000 C   0  0  0  0  0  0  0  0  0  0  0  0
    6.3781   -7.8813    0.0000 C   0  0  0  0  0  0  0  0  0  0  0  0
    5.8478   -8.5132    0.0000 C   0  0  0  0  0  0  0  0  0  0  0  0
    5.0353   -8.3700    0.0000 C   0  0  0  0  0  0  0  0  0  0  0  0
    4.7532   -7.5947    0.0000 C   0  0  0  0  0  0  0  0  0  0  0  0
  1  2  1  0  0  0  0
  2  3  1  0  0  0  0
  2 25  1  0  0  0  0
  3  4  1  0  0  0  0
  4  5  1  0  0  0  0
  5  6  2  0  0  0  0
  5 10  1  0  0  0  0
  6  7  1  0  0  0  0
  7  8  2  0  0  0  0
  8  9  1  0  0  0  0
  9 10  2  0  0  0  0
 10 11  1  0  0  0  0
 11 12  2  0  0  0  0
 11 13  1  0  0  0  0
 13 14  1  0  0  0  0
 14 15  1  0  0  0  0
 15 16  2  0  0  0  0
 15 24  1  0  0  0  0
 16 17  1  0  0  0  0
 17 18  2  0  0  0  0
 18 19  1  0  0  0  0
 19 20  2  0  0  0  0
 19 24  1  0  0  0  0
 20 21  1  0  0  0  0
 21 22  2  0  0  0  0
 22 23  1  0  0  0  0
 23 24  2  0  0  0  0
 25 26  1  0  0  0  0
 26 27  1  0  0  0  0
 26 32  1  0  0  0  0
 27 28  1  0  0  0  0
 28 29  1  0  0  0  0
 29 30  1  0  0  0  0
 29 31  1  0  0  0  0
 29 33  1  0  0  0  0
 31 32  1  0  0  0  0
 33 34  2  0  0  0  0
 33 38  1  0  0  0  0
 34 35  1  0  0  0  0
 35 36  2  0  0  0  0
 36 37  1  0  0  0  0
 37 38  2  0  0  0  0
M  END
$$$$

 OpenBabel12191814062D

 31 34  0  0  0  0  0  0  0  0999 V2000
   -0.7145   -6.1875    0.0000 O   0  0  0  0  0  0  0  0  0  0  0  0
    0.0000   -6.6000    0.0000 C   0  0  3  0  0  0  0  0  0  0  0  0
    0.7145   -6.1875    0.0000 C   0  0  0  0  0  0  0  0  0  0  0  0
    0.7145   -5.3625    0.0000 O   0  0  0  0  0  0  0  0  0  0  0  0
    0.0000   -4.9500    0.0000 C   0  0  0  0  0  0  0  0  0  0  0  0
   -0.7145   -5.3625    0.0000 C   0  0  0  0  0  0  0  0  0  0  0  0
   -1.4289   -4.9500    0.0000 C   0  0  0  0  0  0  0  0  0  0  0  0
   -1.4289   -4.1250    0.0000 C   0  0  0  0  0  0  0  0  0  0  0  0
   -0.7145   -3.7125    0.0000 C   0  0  0  0  0  0  0  0  0  0  0  0
    0.0000   -4.1250    0.0000 C   0  0  0  0  0  0  0  0  0  0  0  0
    0.7145   -3.7125    0.0000 C   0  0  0  0  0  0  0  0  0  0  0  0
    1.4289   -4.1250    0.0000 O   0  0  0  0  0  0  0  0  0  0  0  0
    0.7145   -2.8875    0.0000 C   0  0  0  0  0  0  0  0  0  0  0  0
    1.4289   -2.4750    0.0000 C   0  0  0  0  0  0  0  0  0  0  0  0
    1.4289   -1.6500    0.0000 C   0  0  0  0  0  0  0  0  0  0  0  0
    0.7145   -1.2375    0.0000 C   0  0  0  0  0  0  0  0  0  0  0  0
    0.7145   -0.4125    0.0000 C   0  0  0  0  0  0  0  0  0  0  0  0
    1.4289    0.0000    0.0000 C   0  0  0  0  0  0  0  0  0  0  0  0
    2.1434   -0.4125    0.0000 C   0  0  0  0  0  0  0  0  0  0  0  0
    2.8579    0.0000    0.0000 C   0  0  0  0  0  0  0  0  0  0  0  0
    3.5724   -0.4125    0.0000 C   0  0  0  0  0  0  0  0  0  0  0  0
    3.5724   -1.2375    0.0000 C   0  0  0  0  0  0  0  0  0  0  0  0
    2.8579   -1.6500    0.0000 C   0  0  0  0  0  0  0  0  0  0  0  0
    2.1434   -1.2375    0.0000 C   0  0  0  0  0  0  0  0  0  0  0  0
   -0.0000   -7.4250    0.0000 C   0  0  0  0  0  0  0  0  0  0  0  0
   -0.7145   -7.8375    0.0000 N   0  0  0  0  0  0  0  0  0  0  0  0
   -0.7145   -8.6625    0.0000 C   0  0  0  0  0  0  0  0  0  0  0  0
   -1.4289   -9.0750    0.0000 C   0  0  0  0  0  0  0  0  0  0  0  0
   -2.1434   -8.6625    0.0000 C   0  0  0  0  0  0  0  0  0  0  0  0
   -2.1434   -7.8375    0.0000 C   0  0  0  0  0  0  0  0  0  0  0  0
   -1.4289   -7.4250    0.0000 C   0  0  0  0  0  0  0  0  0  0  0  0
  1  2  1  0  0  0  0
  2  3  1  0  0  0  0
  2 25  1  0  0  0  0
  3  4  1  0  0  0  0
  4  5  1  0  0  0  0
  5  6  2  0  0  0  0
  5 10  1  0  0  0  0
  6  7  1  0  0  0  0
  7  8  2  0  0  0  0
  8  9  1  0  0  0  0
  9 10  2  0  0  0  0
 10 11  1  0  0  0  0
 11 12  2  0  0  0  0
 11 13  1  0  0  0  0
 13 14  1  0  0  0  0
 14 15  1  0  0  0  0
 15 16  2  0  0  0  0
 15 24  1  0  0  0  0
 16 17  1  0  0  0  0
 17 18  2  0  0  0  0
 18 19  1  0  0  0  0
 19 20  2  0  0  0  0
 19 24  1  0  0  0  0
 20 21  1  0  0  0  0
 21 22  2  0  0  0  0
 22 23  1  0  0  0  0
 23 24  2  0  0  0  0
 25 26  1  0  0  0  0
 26 27  1  0  0  0  0
 26 31  1  0  0  0  0
 27 28  1  0  0  0  0
 28 29  1  0  0  0  0
 29 30  1  0  0  0  0
 30 31  1  0  0  0  0
M  END
$$$$

 OpenBabel12191814062D

 31 34  0  0  0  0  0  0  0  0999 V2000
   -0.7145   -6.1875    0.0000 O   0  0  0  0  0  0  0  0  0  0  0  0
    0.0000   -6.6000    0.0000 C   0  0  3  0  0  0  0  0  0  0  0  0
    0.7145   -6.1875    0.0000 C   0  0  0  0  0  0  0  0  0  0  0  0
    0.7145   -5.3625    0.0000 O   0  0  0  0  0  0  0  0  0  0  0  0
    0.0000   -4.9500    0.0000 C   0  0  0  0  0  0  0  0  0  0  0  0
   -0.7145   -5.3625    0.0000 C   0  0  0  0  0  0  0  0  0  0  0  0
   -1.4289   -4.9500    0.0000 C   0  0  0  0  0  0  0  0  0  0  0  0
   -1.4289   -4.1250    0.0000 C   0  0  0  0  0  0  0  0  0  0  0  0
   -0.7145   -3.7125    0.0000 C   0  0  0  0  0  0  0  0  0  0  0  0
    0.0000   -4.1250    0.0000 C   0  0  0  0  0  0  0  0  0  0  0  0
    0.7145   -3.7125    0.0000 C   0  0  0  0  0  0  0  0  0  0  0  0
    1.4289   -4.1250    0.0000 O   0  0  0  0  0  0  0  0  0  0  0  0
    0.7145   -2.8875    0.0000 C   0  0  0  0  0  0  0  0  0  0  0  0
    1.4289   -2.4750    0.0000 C   0  0  0  0  0  0  0  0  0  0  0  0
    1.4289   -1.6500    0.0000 C   0  0  0  0  0  0  0  0  0  0  0  0
    0.7145   -1.2375    0.0000 C   0  0  0  0  0  0  0  0  0  0  0  0
    0.7145   -0.4125    0.0000 C   0  0  0  0  0  0  0  0  0  0  0  0
    1.4289    0.0000    0.0000 C   0  0  0  0  0  0  0  0  0  0  0  0
    2.1434   -0.4125    0.0000 C   0  0  0  0  0  0  0  0  0  0  0  0
    2.8579    0.0000    0.0000 C   0  0  0  0  0  0  0  0  0  0  0  0
    3.5724   -0.4125    0.0000 C   0  0  0  0  0  0  0  0  0  0  0  0
    3.5724   -1.2375    0.0000 C   0  0  0  0  0  0  0  0  0  0  0  0
    2.8579   -1.6500    0.0000 C   0  0  0  0  0  0  0  0  0  0  0  0
    2.1434   -1.2375    0.0000 C   0  0  0  0  0  0  0  0  0  0  0  0
   -0.0000   -7.4250    0.0000 C   0  0  0  0  0  0  0  0  0  0  0  0
   -0.7145   -7.8375    0.0000 N   0  0  0  0  0  0  0  0  0  0  0  0
   -0.7145   -8.6625    0.0000 C   0  0  0  0  0  0  0  0  0  0  0  0
   -1.4289   -9.0750    0.0000 C   0  0  0  0  0  0  0  0  0  0  0  0
   -2.1434   -8.6625    0.0000 O   0  0  0  0  0  0  0  0  0  0  0  0
   -2.1434   -7.8375    0.0000 C   0  0  0  0  0  0  0  0  0  0  0  0
   -1.4289   -7.4250    0.0000 C   0  0  0  0  0  0  0  0  0  0  0  0
  1  2  1  0  0  0  0
  2  3  1  0  0  0  0
  2 25  1  0  0  0  0
  3  4  1  0  0  0  0
  4  5  1  0  0  0  0
  5  6  2  0  0  0  0
  5 10  1  0  0  0  0
  6  7  1  0  0  0  0
  7  8  2  0  0  0  0
  8  9  1  0  0  0  0
  9 10  2  0  0  0  0
 10 11  1  0  0  0  0
 11 12  2  0  0  0  0
 11 13  1  0  0  0  0
 13 14  1  0  0  0  0
 14 15  1  0  0  0  0
 15 16  2  0  0  0  0
 15 24  1  0  0  0  0
 16 17  1  0  0  0  0
 17 18  2  0  0  0  0
 18 19  1  0  0  0  0
 19 20  2  0  0  0  0
 19 24  1  0  0  0  0
 20 21  1  0  0  0  0
 21 22  2  0  0  0  0
 22 23  1  0  0  0  0
 23 24  2  0  0  0  0
 25 26  1  0  0  0  0
 26 27  1  0  0  0  0
 26 31  1  0  0  0  0
 27 28  1  0  0  0  0
 28 29  1  0  0  0  0
 29 30  1  0  0  0  0
 30 31  1  0  0  0  0
M  END
$$$$

 OpenBabel12191814062D

 34 37  0  0  0  0  0  0  0  0999 V2000
   -4.2868   -2.4750    0.0000 O   0  0  0  0  0  0  0  0  0  0  0  0
   -5.0013   -2.8875    0.0000 C   0  0  3  0  0  0  0  0  0  0  0  0
   -5.0013   -3.7125    0.0000 C   0  0  0  0  0  0  0  0  0  0  0  0
   -4.2868   -4.1250    0.0000 O   0  0  0  0  0  0  0  0  0  0  0  0
   -4.2868   -4.9500    0.0000 C   0  0  0  0  0  0  0  0  0  0  0  0
   -3.5724   -5.3625    0.0000 C   0  0  0  0  0  0  0  0  0  0  0  0
   -3.5724   -6.1875    0.0000 C   0  0  0  0  0  0  0  0  0  0  0  0
   -4.2868   -6.6000    0.0000 C   0  0  0  0  0  0  0  0  0  0  0  0
   -5.0013   -6.1875    0.0000 C   0  0  0  0  0  0  0  0  0  0  0  0
   -5.0013   -5.3625    0.0000 C   0  0  0  0  0  0  0  0  0  0  0  0
   -5.7158   -4.9500    0.0000 C   0  0  0  0  0  0  0  0  0  0  0  0
   -5.7158   -4.1250    0.0000 O   0  0  0  0  0  0  0  0  0  0  0  0
   -6.4302   -5.3625    0.0000 C   0  0  0  0  0  0  0  0  0  0  0  0
   -7.1447   -4.9500    0.0000 C   0  0  0  0  0  0  0  0  0  0  0  0
   -7.8592   -5.3625    0.0000 C   0  0  0  0  0  0  0  0  0  0  0  0
   -7.8592   -6.1875    0.0000 C   0  0  0  0  0  0  0  0  0  0  0  0
   -8.5737   -6.6000    0.0000 C   0  0  0  0  0  0  0  0  0  0  0  0
   -9.2881   -6.1875    0.0000 C   0  0  0  0  0  0  0  0  0  0  0  0
   -9.2881   -5.3625    0.0000 C   0  0  0  0  0  0  0  0  0  0  0  0
   -8.5737   -4.9500    0.0000 C   0  0  0  0  0  0  0  0  0  0  0  0
   -5.7158   -2.4750    0.0000 C   0  0  0  0  0  0  0  0  0  0  0  0
   -5.7158   -1.6500    0.0000 N   0  0  0  0  0  0  0  0  0  0  0  0
   -6.4302   -1.2375    0.0000 C   0  0  0  0  0  0  0  0  0  0  0  0
   -6.4302   -0.4125    0.0000 C   0  0  0  0  0  0  0  0  0  0  0  0
   -5.7158   -0.0000    0.0000 C   0  0  3  0  0  0  0  0  0  0  0  0
   -5.7158    0.8250    0.0000 C   0  0  0  0  0  0  0  0  0  0  0  0
   -6.4302    1.2375    0.0000 C   0  0  0  0  0  0  0  0  0  0  0  0
   -7.1447    0.8250    0.0000 C   0  0  0  0  0  0  0  0  0  0  0  0
   -7.8592    1.2375    0.0000 C   0  0  0  0  0  0  0  0  0  0  0  0
   -7.8592    2.0625    0.0000 C   0  0  0  0  0  0  0  0  0  0  0  0
   -7.1447    2.4750    0.0000 C   0  0  0  0  0  0  0  0  0  0  0  0
   -6.4302    2.0625    0.0000 C   0  0  0  0  0  0  0  0  0  0  0  0
   -5.0013   -0.4125    0.0000 C   0  0  0  0  0  0  0  0  0  0  0  0
   -5.0013   -1.2375    0.0000 C   0  0  0  0  0  0  0  0  0  0  0  0
  1  2  1  0  0  0  0
  2  3  1  0  0  0  0
  2 21  1  0  0  0  0
  3  4  1  0  0  0  0
  4  5  1  0  0  0  0
  5  6  2  0  0  0  0
  5 10  1  0  0  0  0
  6  7  1  0  0  0  0
  7  8  2  0  0  0  0
  8  9  1  0  0  0  0
  9 10  2  0  0  0  0
 10 11  1  0  0  0  0
 11 12  2  0  0  0  0
 11 13  1  0  0  0  0
 13 14  1  0  0  0  0
 14 15  1  0  0  0  0
 15 16  2  0  0  0  0
 15 20  1  0  0  0  0
 16 17  1  0  0  0  0
 17 18  2  0  0  0  0
 18 19  1  0  0  0  0
 19 20  2  0  0  0  0
 21 22  1  0  0  0  0
 22 23  1  0  0  0  0
 22 34  1  0  0  0  0
 23 24  1  0  0  0  0
 24 25  1  0  0  0  0
 25 26  1  0  0  0  0
 25 33  1  0  0  0  0
 26 27  1  0  0  0  0
 27 28  2  0  0  0  0
 27 32  1  0  0  0  0
 28 29  1  0  0  0  0
 29 30  2  0  0  0  0
 30 31  1  0  0  0  0
 31 32  2  0  0  0  0
 33 34  1  0  0  0  0
M  END
$$$$

 OpenBabel12191814062D

 34 37  0  0  0  0  0  0  0  0999 V2000
    5.5212   -1.4429    0.0000 O   0  0  0  0  0  0  0  0  0  0  0  0
    4.8067   -1.8554    0.0000 C   0  0  3  0  0  0  0  0  0  0  0  0
    4.8067   -2.6804    0.0000 C   0  0  0  0  0  0  0  0  0  0  0  0
    5.5212   -3.0929    0.0000 O   0  0  0  0  0  0  0  0  0  0  0  0
    5.5212   -3.9179    0.0000 C   0  0  0  0  0  0  0  0  0  0  0  0
    6.2357   -4.3304    0.0000 C   0  0  0  0  0  0  0  0  0  0  0  0
    6.2357   -5.1554    0.0000 C   0  0  0  0  0  0  0  0  0  0  0  0
    5.5212   -5.5679    0.0000 C   0  0  0  0  0  0  0  0  0  0  0  0
    4.8067   -5.1554    0.0000 C   0  0  0  0  0  0  0  0  0  0  0  0
    4.8067   -4.3304    0.0000 C   0  0  0  0  0  0  0  0  0  0  0  0
    4.0923   -3.9179    0.0000 C   0  0  0  0  0  0  0  0  0  0  0  0
    4.0923   -3.0929    0.0000 O   0  0  0  0  0  0  0  0  0  0  0  0
    3.3778   -4.3304    0.0000 C   0  0  0  0  0  0  0  0  0  0  0  0
    2.6633   -3.9179    0.0000 C   0  0  0  0  0  0  0  0  0  0  0  0
    1.9488   -4.3304    0.0000 C   0  0  0  0  0  0  0  0  0  0  0  0
    1.9488   -5.1554    0.0000 C   0  0  0  0  0  0  0  0  0  0  0  0
    1.2344   -5.5679    0.0000 C   0  0  0  0  0  0  0  0  0  0  0  0
    0.5199   -5.1554    0.0000 C   0  0  0  0  0  0  0  0  0  0  0  0
    0.5199   -4.3304    0.0000 C   0  0  0  0  0  0  0  0  0  0  0  0
    1.2344   -3.9179    0.0000 C   0  0  0  0  0  0  0  0  0  0  0  0
    4.0923   -1.4429    0.0000 C   0  0  0  0  0  0  0  0  0  0  0  0
    4.0923   -0.6179    0.0000 N   0  0  0  0  0  0  0  0  0  0  0  0
    3.3778   -0.2054    0.0000 C   0  0  0  0  0  0  0  0  0  0  0  0
    3.3778    0.6196    0.0000 C   0  0  0  0  0  0  0  0  0  0  0  0
    4.0923    1.0321    0.0000 C   0  0  3  0  0  0  0  0  0  0  0  0
    3.5620    1.6641    0.0000 O   0  0  0  0  0  0  0  0  0  0  0  0
    4.8067    0.6196    0.0000 C   0  0  0  0  0  0  0  0  0  0  0  0
    4.8067   -0.2054    0.0000 C   0  0  0  0  0  0  0  0  0  0  0  0
    4.6226    1.6641    0.0000 C   0  0  0  0  0  0  0  0  0  0  0  0
    4.3404    2.4393    0.0000 C   0  0  0  0  0  0  0  0  0  0  0  0
    4.8707    3.0713    0.0000 C   0  0  0  0  0  0  0  0  0  0  0  0
    5.6832    2.9281    0.0000 C   0  0  0  0  0  0  0  0  0  0  0  0
    5.9653    2.1528    0.0000 C   0  0  0  0  0  0  0  0  0  0  0  0
    5.4350    1.5208    0.0000 C   0  0  0  0  0  0  0  0  0  0  0  0
  1  2  1  0  0  0  0
  2  3  1  0  0  0  0
  2 21  1  0  0  0  0
  3  4  1  0  0  0  0
  4  5  1  0  0  0  0
  5  6  2  0  0  0  0
  5 10  1  0  0  0  0
  6  7  1  0  0  0  0
  7  8  2  0  0  0  0
  8  9  1  0  0  0  0
  9 10  2  0  0  0  0
 10 11  1  0  0  0  0
 11 12  2  0  0  0  0
 11 13  1  0  0  0  0
 13 14  1  0  0  0  0
 14 15  1  0  0  0  0
 15 16  2  0  0  0  0
 15 20  1  0  0  0  0
 16 17  1  0  0  0  0
 17 18  2  0  0  0  0
 18 19  1  0  0  0  0
 19 20  2  0  0  0  0
 21 22  1  0  0  0  0
 22 23  1  0  0  0  0
 22 28  1  0  0  0  0
 23 24  1  0  0  0  0
 24 25  1  0  0  0  0
 25 26  1  0  0  0  0
 25 27  1  0  0  0  0
 25 29  1  0  0  0  0
 27 28  1  0  0  0  0
 29 30  2  0  0  0  0
 29 34  1  0  0  0  0
 30 31  1  0  0  0  0
 31 32  2  0  0  0  0
 32 33  1  0  0  0  0
 33 34  2  0  0  0  0
M  END
$$$$

 OpenBabel12191814062D

 26 28  0  0  0  0  0  0  0  0999 V2000
    0.7145   -6.1875    0.0000 O   0  0  0  0  0  0  0  0  0  0  0  0
    0.7145   -5.3625    0.0000 C   0  0  3  0  0  0  0  0  0  0  0  0
    0.0000   -4.9500    0.0000 C   0  0  0  0  0  0  0  0  0  0  0  0
   -0.7145   -5.3625    0.0000 O   0  0  0  0  0  0  0  0  0  0  0  0
   -0.7145   -6.1875    0.0000 C   0  0  0  0  0  0  0  0  0  0  0  0
    0.0000   -6.6000    0.0000 C   0  0  0  0  0  0  0  0  0  0  0  0
    0.0000   -7.4250    0.0000 C   0  0  0  0  0  0  0  0  0  0  0  0
   -0.7145   -7.8375    0.0000 C   0  0  0  0  0  0  0  0  0  0  0  0
   -1.4289   -7.4250    0.0000 C   0  0  0  0  0  0  0  0  0  0  0  0
   -1.4289   -6.6000    0.0000 C   0  0  0  0  0  0  0  0  0  0  0  0
   -2.1434   -6.1875    0.0000 C   0  0  0  0  0  0  0  0  0  0  0  0
   -2.1434   -5.3625    0.0000 O   0  0  0  0  0  0  0  0  0  0  0  0
   -2.8579   -6.6000    0.0000 C   0  0  0  0  0  0  0  0  0  0  0  0
   -3.5724   -6.1875    0.0000 C   0  0  0  0  0  0  0  0  0  0  0  0
   -4.2868   -6.6000    0.0000 C   0  0  0  0  0  0  0  0  0  0  0  0
   -4.2868   -7.4250    0.0000 C   0  0  0  0  0  0  0  0  0  0  0  0
   -5.0013   -7.8375    0.0000 C   0  0  0  0  0  0  0  0  0  0  0  0
   -5.7158   -7.4250    0.0000 C   0  0  0  0  0  0  0  0  0  0  0  0
   -5.7158   -6.6000    0.0000 C   0  0  0  0  0  0  0  0  0  0  0  0
   -5.0013   -6.1875    0.0000 C   0  0  0  0  0  0  0  0  0  0  0  0
    1.4289   -4.9500    0.0000 C   0  0  0  0  0  0  0  0  0  0  0  0
    2.1434   -5.3625    0.0000 N   0  0  0  0  0  0  0  0  0  0  0  0
    2.8971   -5.0269    0.0000 C   0  0  0  0  0  0  0  0  0  0  0  0
    3.4491   -5.6400    0.0000 C   0  0  0  0  0  0  0  0  0  0  0  0
    3.0366   -6.3545    0.0000 C   0  0  0  0  0  0  0  0  0  0  0  0
    2.2296   -6.1830    0.0000 C   0  0  0  0  0  0  0  0  0  0  0  0
  1  2  1  0  0  0  0
  2  3  1  0  0  0  0
  2 21  1  0  0  0  0
  3  4  1  0  0  0  0
  4  5  1  0  0  0  0
  5  6  2  0  0  0  0
  5 10  1  0  0  0  0
  6  7  1  0  0  0  0
  7  8  2  0  0  0  0
  8  9  1  0  0  0  0
  9 10  2  0  0  0  0
 10 11  1  0  0  0  0
 11 12  2  0  0  0  0
 11 13  1  0  0  0  0
 13 14  1  0  0  0  0
 14 15  1  0  0  0  0
 15 16  2  0  0  0  0
 15 20  1  0  0  0  0
 16 17  1  0  0  0  0
 17 18  2  0  0  0  0
 18 19  1  0  0  0  0
 19 20  2  0  0  0  0
 21 22  1  0  0  0  0
 22 23  1  0  0  0  0
 22 26  1  0  0  0  0
 23 24  1  0  0  0  0
 24 25  1  0  0  0  0
 25 26  1  0  0  0  0
M  END
$$$$

 OpenBabel12191814062D

 27 29  0  0  0  0  0  0  0  0999 V2000
    2.1434   -3.7125    0.0000 O   0  0  0  0  0  0  0  0  0  0  0  0
    2.1434   -2.8875    0.0000 C   0  0  3  0  0  0  0  0  0  0  0  0
    1.4289   -2.4750    0.0000 C   0  0  0  0  0  0  0  0  0  0  0  0
    0.7145   -2.8875    0.0000 O   0  0  0  0  0  0  0  0  0  0  0  0
    0.7145   -3.7125    0.0000 C   0  0  0  0  0  0  0  0  0  0  0  0
    1.4289   -4.1250    0.0000 C   0  0  0  0  0  0  0  0  0  0  0  0
    1.4289   -4.9500    0.0000 C   0  0  0  0  0  0  0  0  0  0  0  0
    0.7145   -5.3625    0.0000 C   0  0  0  0  0  0  0  0  0  0  0  0
    0.0000   -4.9500    0.0000 C   0  0  0  0  0  0  0  0  0  0  0  0
    0.0000   -4.1250    0.0000 C   0  0  0  0  0  0  0  0  0  0  0  0
   -0.7145   -3.7125    0.0000 C   0  0  0  0  0  0  0  0  0  0  0  0
   -0.7145   -2.8875    0.0000 O   0  0  0  0  0  0  0  0  0  0  0  0
   -1.4289   -4.1250    0.0000 C   0  0  0  0  0  0  0  0  0  0  0  0
   -2.1434   -3.7125    0.0000 C   0  0  0  0  0  0  0  0  0  0  0  0
   -2.8579   -4.1250    0.0000 C   0  0  0  0  0  0  0  0  0  0  0  0
   -2.8579   -4.9500    0.0000 C   0  0  0  0  0  0  0  0  0  0  0  0
   -3.5724   -5.3625    0.0000 C   0  0  0  0  0  0  0  0  0  0  0  0
   -4.2868   -4.9500    0.0000 C   0  0  0  0  0  0  0  0  0  0  0  0
   -4.2868   -4.1250    0.0000 C   0  0  0  0  0  0  0  0  0  0  0  0
   -3.5724   -3.7125    0.0000 C   0  0  0  0  0  0  0  0  0  0  0  0
    2.8579   -2.4750    0.0000 C   0  0  0  0  0  0  0  0  0  0  0  0
    3.5724   -2.8875    0.0000 N   0  0  0  0  0  0  0  0  0  0  0  0
    4.2868   -2.4750    0.0000 C   0  0  0  0  0  0  0  0  0  0  0  0
    5.0013   -2.8875    0.0000 C   0  0  0  0  0  0  0  0  0  0  0  0
    5.0013   -3.7125    0.0000 C   0  0  0  0  0  0  0  0  0  0  0  0
    4.2868   -4.1250    0.0000 C   0  0  0  0  0  0  0  0  0  0  0  0
    3.5724   -3.7125    0.0000 C   0  0  0  0  0  0  0  0  0  0  0  0
  1  2  1  0  0  0  0
  2  3  1  0  0  0  0
  2 21  1  0  0  0  0
  3  4  1  0  0  0  0
  4  5  1  0  0  0  0
  5  6  2  0  0  0  0
  5 10  1  0  0  0  0
  6  7  1  0  0  0  0
  7  8  2  0  0  0  0
  8  9  1  0  0  0  0
  9 10  2  0  0  0  0
 10 11  1  0  0  0  0
 11 12  2  0  0  0  0
 11 13  1  0  0  0  0
 13 14  1  0  0  0  0
 14 15  1  0  0  0  0
 15 16  2  0  0  0  0
 15 20  1  0  0  0  0
 16 17  1  0  0  0  0
 17 18  2  0  0  0  0
 18 19  1  0  0  0  0
 19 20  2  0  0  0  0
 21 22  1  0  0  0  0
 22 23  1  0  0  0  0
 22 27  1  0  0  0  0
 23 24  1  0  0  0  0
 24 25  1  0  0  0  0
 25 26  1  0  0  0  0
 26 27  1  0  0  0  0
M  END
$$$$

 OpenBabel12191814062D

 35 38  0  0  0  0  0  0  0  0999 V2000
   -4.2868   -2.4750    0.0000 O   0  0  0  0  0  0  0  0  0  0  0  0
   -5.0013   -2.8875    0.0000 C   0  0  3  0  0  0  0  0  0  0  0  0
   -5.0013   -3.7125    0.0000 C   0  0  0  0  0  0  0  0  0  0  0  0
   -4.2868   -4.1250    0.0000 O   0  0  0  0  0  0  0  0  0  0  0  0
   -4.2868   -4.9500    0.0000 C   0  0  0  0  0  0  0  0  0  0  0  0
   -3.5724   -5.3625    0.0000 C   0  0  0  0  0  0  0  0  0  0  0  0
   -3.5724   -6.1875    0.0000 C   0  0  0  0  0  0  0  0  0  0  0  0
   -4.2868   -6.6000    0.0000 C   0  0  0  0  0  0  0  0  0  0  0  0
   -5.0013   -6.1875    0.0000 C   0  0  0  0  0  0  0  0  0  0  0  0
   -5.0013   -5.3625    0.0000 C   0  0  0  0  0  0  0  0  0  0  0  0
   -5.7158   -4.9500    0.0000 C   0  0  0  0  0  0  0  0  0  0  0  0
   -5.7158   -4.1250    0.0000 O   0  0  0  0  0  0  0  0  0  0  0  0
   -6.4302   -5.3625    0.0000 C   0  0  0  0  0  0  0  0  0  0  0  0
   -7.1447   -4.9500    0.0000 C   0  0  0  0  0  0  0  0  0  0  0  0
   -7.8592   -5.3625    0.0000 C   0  0  0  0  0  0  0  0  0  0  0  0
   -7.8592   -6.1875    0.0000 C   0  0  0  0  0  0  0  0  0  0  0  0
   -8.5737   -6.6000    0.0000 C   0  0  0  0  0  0  0  0  0  0  0  0
   -9.2881   -6.1875    0.0000 C   0  0  0  0  0  0  0  0  0  0  0  0
   -9.2881   -5.3625    0.0000 C   0  0  0  0  0  0  0  0  0  0  0  0
   -8.5737   -4.9500    0.0000 C   0  0  0  0  0  0  0  0  0  0  0  0
   -5.7158   -2.4750    0.0000 C   0  0  0  0  0  0  0  0  0  0  0  0
   -5.7158   -1.6500    0.0000 N   0  0  0  0  0  0  0  0  0  0  0  0
   -6.4302   -1.2375    0.0000 C   0  0  0  0  0  0  0  0  0  0  0  0
   -6.4302   -0.4125    0.0000 C   0  0  0  0  0  0  0  0  0  0  0  0
   -5.7158   -0.0000    0.0000 N   0  0  0  0  0  0  0  0  0  0  0  0
   -5.0013   -0.4125    0.0000 C   0  0  0  0  0  0  0  0  0  0  0  0
   -5.0013   -1.2375    0.0000 C   0  0  0  0  0  0  0  0  0  0  0  0
   -5.7158    0.8250    0.0000 C   0  0  0  0  0  0  0  0  0  0  0  0
   -5.0013    1.2375    0.0000 O   0  0  0  0  0  0  0  0  0  0  0  0
   -6.4302    1.2375    0.0000 C   0  0  0  0  0  0  0  0  0  0  0  0
   -7.1447    0.8250    0.0000 C   0  0  0  0  0  0  0  0  0  0  0  0
   -7.8592    1.2375    0.0000 C   0  0  0  0  0  0  0  0  0  0  0  0
   -7.8592    2.0625    0.0000 C   0  0  0  0  0  0  0  0  0  0  0  0
   -7.1447    2.4750    0.0000 C   0  0  0  0  0  0  0  0  0  0  0  0
   -6.4302    2.0625    0.0000 C   0  0  0  0  0  0  0  0  0  0  0  0
  1  2  1  0  0  0  0
  2  3  1  0  0  0  0
  2 21  1  0  0  0  0
  3  4  1  0  0  0  0
  4  5  1  0  0  0  0
  5  6  2  0  0  0  0
  5 10  1  0  0  0  0
  6  7  1  0  0  0  0
  7  8  2  0  0  0  0
  8  9  1  0  0  0  0
  9 10  2  0  0  0  0
 10 11  1  0  0  0  0
 11 12  2  0  0  0  0
 11 13  1  0  0  0  0
 13 14  1  0  0  0  0
 14 15  1  0  0  0  0
 15 16  2  0  0  0  0
 15 20  1  0  0  0  0
 16 17  1  0  0  0  0
 17 18  2  0  0  0  0
 18 19  1  0  0  0  0
 19 20  2  0  0  0  0
 21 22  1  0  0  0  0
 22 23  1  0  0  0  0
 22 27  1  0  0  0  0
 23 24  1  0  0  0  0
 24 25  1  0  0  0  0
 25 26  1  0  0  0  0
 25 28  1  0  0  0  0
 26 27  1  0  0  0  0
 28 29  2  0  0  0  0
 28 30  1  0  0  0  0
 30 31  2  0  0  0  0
 30 35  1  0  0  0  0
 31 32  1  0  0  0  0
 32 33  2  0  0  0  0
 33 34  1  0  0  0  0
 34 35  2  0  0  0  0
M  END
$$$$

 OpenBabel12191814062D

 34 37  0  0  0  0  0  0  0  0999 V2000
    5.0013   -3.7125    0.0000 O   0  0  0  0  0  0  0  0  0  0  0  0
    5.0013   -2.8875    0.0000 C   0  0  3  0  0  0  0  0  0  0  0  0
    4.2868   -2.4750    0.0000 C   0  0  0  0  0  0  0  0  0  0  0  0
    3.5724   -2.8875    0.0000 O   0  0  0  0  0  0  0  0  0  0  0  0
    3.5724   -3.7125    0.0000 C   0  0  0  0  0  0  0  0  0  0  0  0
    4.2868   -4.1250    0.0000 C   0  0  0  0  0  0  0  0  0  0  0  0
    4.2868   -4.9500    0.0000 C   0  0  0  0  0  0  0  0  0  0  0  0
    3.5724   -5.3625    0.0000 C   0  0  0  0  0  0  0  0  0  0  0  0
    2.8579   -4.9500    0.0000 C   0  0  0  0  0  0  0  0  0  0  0  0
    2.8579   -4.1250    0.0000 C   0  0  0  0  0  0  0  0  0  0  0  0
    2.1434   -3.7125    0.0000 C   0  0  0  0  0  0  0  0  0  0  0  0
    2.1434   -2.8875    0.0000 O   0  0  0  0  0  0  0  0  0  0  0  0
    1.4289   -4.1250    0.0000 C   0  0  0  0  0  0  0  0  0  0  0  0
    0.7145   -3.7125    0.0000 C   0  0  0  0  0  0  0  0  0  0  0  0
    0.0000   -4.1250    0.0000 C   0  0  0  0  0  0  0  0  0  0  0  0
    0.0000   -4.9500    0.0000 C   0  0  0  0  0  0  0  0  0  0  0  0
   -0.7145   -5.3625    0.0000 C   0  0  0  0  0  0  0  0  0  0  0  0
   -1.4289   -4.9500    0.0000 C   0  0  0  0  0  0  0  0  0  0  0  0
   -1.4289   -4.1250    0.0000 C   0  0  0  0  0  0  0  0  0  0  0  0
   -0.7145   -3.7125    0.0000 C   0  0  0  0  0  0  0  0  0  0  0  0
    5.7158   -2.4750    0.0000 C   0  0  0  0  0  0  0  0  0  0  0  0
    6.4302   -2.8875    0.0000 N   0  0  0  0  0  0  0  0  0  0  0  0
    7.1447   -2.4750    0.0000 C   0  0  0  0  0  0  0  0  0  0  0  0
    7.8592   -2.8875    0.0000 C   0  0  0  0  0  0  0  0  0  0  0  0
    7.8592   -3.7125    0.0000 N   0  0  0  0  0  0  0  0  0  0  0  0
    7.1447   -4.1250    0.0000 C   0  0  0  0  0  0  0  0  0  0  0  0
    6.4302   -3.7125    0.0000 C   0  0  0  0  0  0  0  0  0  0  0  0
    8.5737   -4.1250    0.0000 C   0  0  0  0  0  0  0  0  0  0  0  0
    9.2881   -3.7125    0.0000 C   0  0  0  0  0  0  0  0  0  0  0  0
   10.0026   -4.1250    0.0000 C   0  0  0  0  0  0  0  0  0  0  0  0
   10.0026   -4.9500    0.0000 C   0  0  0  0  0  0  0  0  0  0  0  0
   10.7171   -5.3625    0.0000 F   0  0  0  0  0  0  0  0  0  0  0  0
    9.2881   -5.3625    0.0000 C   0  0  0  0  0  0  0  0  0  0  0  0
    8.5737   -4.9500    0.0000 C   0  0  0  0  0  0  0  0  0  0  0  0
  1  2  1  0  0  0  0
  2  3  1  0  0  0  0
  2 21  1  0  0  0  0
  3  4  1  0  0  0  0
  4  5  1  0  0  0  0
  5  6  2  0  0  0  0
  5 10  1  0  0  0  0
  6  7  1  0  0  0  0
  7  8  2  0  0  0  0
  8  9  1  0  0  0  0
  9 10  2  0  0  0  0
 10 11  1  0  0  0  0
 11 12  2  0  0  0  0
 11 13  1  0  0  0  0
 13 14  1  0  0  0  0
 14 15  1  0  0  0  0
 15 16  2  0  0  0  0
 15 20  1  0  0  0  0
 16 17  1  0  0  0  0
 17 18  2  0  0  0  0
 18 19  1  0  0  0  0
 19 20  2  0  0  0  0
 21 22  1  0  0  0  0
 22 23  1  0  0  0  0
 22 27  1  0  0  0  0
 23 24  1  0  0  0  0
 24 25  1  0  0  0  0
 25 26  1  0  0  0  0
 25 28  1  0  0  0  0
 26 27  1  0  0  0  0
 28 29  2  0  0  0  0
 28 34  1  0  0  0  0
 29 30  1  0  0  0  0
 30 31  2  0  0  0  0
 31 32  1  0  0  0  0
 31 33  1  0  0  0  0
 33 34  2  0  0  0  0
M  END
$$$$

 OpenBabel12191814062D

 33 36  0  0  0  0  0  0  0  0999 V2000
    5.0013   -3.7125    0.0000 O   0  0  0  0  0  0  0  0  0  0  0  0
    5.0013   -2.8875    0.0000 C   0  0  3  0  0  0  0  0  0  0  0  0
    4.2868   -2.4750    0.0000 C   0  0  0  0  0  0  0  0  0  0  0  0
    3.5724   -2.8875    0.0000 O   0  0  0  0  0  0  0  0  0  0  0  0
    3.5724   -3.7125    0.0000 C   0  0  0  0  0  0  0  0  0  0  0  0
    4.2868   -4.1250    0.0000 C   0  0  0  0  0  0  0  0  0  0  0  0
    4.2868   -4.9500    0.0000 C   0  0  0  0  0  0  0  0  0  0  0  0
    3.5724   -5.3625    0.0000 C   0  0  0  0  0  0  0  0  0  0  0  0
    2.8579   -4.9500    0.0000 C   0  0  0  0  0  0  0  0  0  0  0  0
    2.8579   -4.1250    0.0000 C   0  0  0  0  0  0  0  0  0  0  0  0
    2.1434   -3.7125    0.0000 C   0  0  0  0  0  0  0  0  0  0  0  0
    2.1434   -2.8875    0.0000 O   0  0  0  0  0  0  0  0  0  0  0  0
    1.4289   -4.1250    0.0000 C   0  0  0  0  0  0  0  0  0  0  0  0
    0.7145   -3.7125    0.0000 C   0  0  0  0  0  0  0  0  0  0  0  0
    0.0000   -4.1250    0.0000 C   0  0  0  0  0  0  0  0  0  0  0  0
    0.0000   -4.9500    0.0000 C   0  0  0  0  0  0  0  0  0  0  0  0
   -0.7145   -5.3625    0.0000 C   0  0  0  0  0  0  0  0  0  0  0  0
   -1.4289   -4.9500    0.0000 C   0  0  0  0  0  0  0  0  0  0  0  0
   -1.4289   -4.1250    0.0000 C   0  0  0  0  0  0  0  0  0  0  0  0
   -0.7145   -3.7125    0.0000 C   0  0  0  0  0  0  0  0  0  0  0  0
    5.7158   -2.4750    0.0000 C   0  0  0  0  0  0  0  0  0  0  0  0
    6.4302   -2.8875    0.0000 N   0  0  0  0  0  0  0  0  0  0  0  0
    7.1447   -2.4750    0.0000 C   0  0  0  0  0  0  0  0  0  0  0  0
    7.8592   -2.8875    0.0000 C   0  0  0  0  0  0  0  0  0  0  0  0
    7.8592   -3.7125    0.0000 N   0  0  0  0  0  0  0  0  0  0  0  0
    7.1447   -4.1250    0.0000 C   0  0  0  0  0  0  0  0  0  0  0  0
    6.4302   -3.7125    0.0000 C   0  0  0  0  0  0  0  0  0  0  0  0
    8.5737   -4.1250    0.0000 C   0  0  0  0  0  0  0  0  0  0  0  0
    9.2881   -3.7125    0.0000 C   0  0  0  0  0  0  0  0  0  0  0  0
   10.0026   -4.1250    0.0000 C   0  0  0  0  0  0  0  0  0  0  0  0
   10.0026   -4.9500    0.0000 C   0  0  0  0  0  0  0  0  0  0  0  0
    9.2881   -5.3625    0.0000 C   0  0  0  0  0  0  0  0  0  0  0  0
    8.5737   -4.9500    0.0000 C   0  0  0  0  0  0  0  0  0  0  0  0
  1  2  1  0  0  0  0
  2  3  1  0  0  0  0
  2 21  1  0  0  0  0
  3  4  1  0  0  0  0
  4  5  1  0  0  0  0
  5  6  2  0  0  0  0
  5 10  1  0  0  0  0
  6  7  1  0  0  0  0
  7  8  2  0  0  0  0
  8  9  1  0  0  0  0
  9 10  2  0  0  0  0
 10 11  1  0  0  0  0
 11 12  2  0  0  0  0
 11 13  1  0  0  0  0
 13 14  1  0  0  0  0
 14 15  1  0  0  0  0
 15 16  2  0  0  0  0
 15 20  1  0  0  0  0
 16 17  1  0  0  0  0
 17 18  2  0  0  0  0
 18 19  1  0  0  0  0
 19 20  2  0  0  0  0
 21 22  1  0  0  0  0
 22 23  1  0  0  0  0
 22 27  1  0  0  0  0
 23 24  1  0  0  0  0
 24 25  1  0  0  0  0
 25 26  1  0  0  0  0
 25 28  1  0  0  0  0
 26 27  1  0  0  0  0
 28 29  2  0  0  0  0
 28 33  1  0  0  0  0
 29 30  1  0  0  0  0
 30 31  2  0  0  0  0
 31 32  1  0  0  0  0
 32 33  2  0  0  0  0
M  END
$$$$

 OpenBabel12191814062D

 34 37  0  0  0  0  0  0  0  0999 V2000
   -4.2868   -2.4750    0.0000 O   0  0  0  0  0  0  0  0  0  0  0  0
   -5.0013   -2.8875    0.0000 C   0  0  3  0  0  0  0  0  0  0  0  0
   -5.0013   -3.7125    0.0000 C   0  0  0  0  0  0  0  0  0  0  0  0
   -4.2868   -4.1250    0.0000 O   0  0  0  0  0  0  0  0  0  0  0  0
   -4.2868   -4.9500    0.0000 C   0  0  0  0  0  0  0  0  0  0  0  0
   -3.5724   -5.3625    0.0000 C   0  0  0  0  0  0  0  0  0  0  0  0
   -3.5724   -6.1875    0.0000 C   0  0  0  0  0  0  0  0  0  0  0  0
   -4.2868   -6.6000    0.0000 C   0  0  0  0  0  0  0  0  0  0  0  0
   -5.0013   -6.1875    0.0000 C   0  0  0  0  0  0  0  0  0  0  0  0
   -5.0013   -5.3625    0.0000 C   0  0  0  0  0  0  0  0  0  0  0  0
   -5.7158   -4.9500    0.0000 C   0  0  0  0  0  0  0  0  0  0  0  0
   -5.7158   -4.1250    0.0000 O   0  0  0  0  0  0  0  0  0  0  0  0
   -6.4302   -5.3625    0.0000 C   0  0  0  0  0  0  0  0  0  0  0  0
   -7.1447   -4.9500    0.0000 C   0  0  0  0  0  0  0  0  0  0  0  0
   -7.8592   -5.3625    0.0000 C   0  0  0  0  0  0  0  0  0  0  0  0
   -7.8592   -6.1875    0.0000 C   0  0  0  0  0  0  0  0  0  0  0  0
   -8.5737   -6.6000    0.0000 C   0  0  0  0  0  0  0  0  0  0  0  0
   -9.2881   -6.1875    0.0000 C   0  0  0  0  0  0  0  0  0  0  0  0
   -9.2881   -5.3625    0.0000 C   0  0  0  0  0  0  0  0  0  0  0  0
   -8.5737   -4.9500    0.0000 C   0  0  0  0  0  0  0  0  0  0  0  0
   -5.7158   -2.4750    0.0000 C   0  0  0  0  0  0  0  0  0  0  0  0
   -5.7158   -1.6500    0.0000 N   0  0  0  0  0  0  0  0  0  0  0  0
   -6.4302   -1.2375    0.0000 C   0  0  0  0  0  0  0  0  0  0  0  0
   -6.4302   -0.4125    0.0000 C   0  0  0  0  0  0  0  0  0  0  0  0
   -5.7158   -0.0000    0.0000 N   0  0  0  0  0  0  0  0  0  0  0  0
   -5.7158    0.8250    0.0000 C   0  0  0  0  0  0  0  0  0  0  0  0
   -6.4302    1.2375    0.0000 C   0  0  0  0  0  0  0  0  0  0  0  0
   -7.1447    0.8250    0.0000 C   0  0  0  0  0  0  0  0  0  0  0  0
   -7.8592    1.2375    0.0000 C   0  0  0  0  0  0  0  0  0  0  0  0
   -7.8592    2.0625    0.0000 C   0  0  0  0  0  0  0  0  0  0  0  0
   -7.1447    2.4750    0.0000 C   0  0  0  0  0  0  0  0  0  0  0  0
   -6.4302    2.0625    0.0000 C   0  0  0  0  0  0  0  0  0  0  0  0
   -5.0013   -0.4125    0.0000 C   0  0  0  0  0  0  0  0  0  0  0  0
   -5.0013   -1.2375    0.0000 C   0  0  0  0  0  0  0  0  0  0  0  0
  1  2  1  0  0  0  0
  2  3  1  0  0  0  0
  2 21  1  0  0  0  0
  3  4  1  0  0  0  0
  4  5  1  0  0  0  0
  5  6  2  0  0  0  0
  5 10  1  0  0  0  0
  6  7  1  0  0  0  0
  7  8  2  0  0  0  0
  8  9  1  0  0  0  0
  9 10  2  0  0  0  0
 10 11  1  0  0  0  0
 11 12  2  0  0  0  0
 11 13  1  0  0  0  0
 13 14  1  0  0  0  0
 14 15  1  0  0  0  0
 15 16  2  0  0  0  0
 15 20  1  0  0  0  0
 16 17  1  0  0  0  0
 17 18  2  0  0  0  0
 18 19  1  0  0  0  0
 19 20  2  0  0  0  0
 21 22  1  0  0  0  0
 22 23  1  0  0  0  0
 22 34  1  0  0  0  0
 23 24  1  0  0  0  0
 24 25  1  0  0  0  0
 25 26  1  0  0  0  0
 25 33  1  0  0  0  0
 26 27  1  0  0  0  0
 27 28  2  0  0  0  0
 27 32  1  0  0  0  0
 28 29  1  0  0  0  0
 29 30  2  0  0  0  0
 30 31  1  0  0  0  0
 31 32  2  0  0  0  0
 33 34  1  0  0  0  0
M  END
$$$$

 OpenBabel12191814062D

 27 29  0  0  0  0  0  0  0  0999 V2000
    2.1434   -3.7125    0.0000 O   0  0  0  0  0  0  0  0  0  0  0  0
    2.1434   -2.8875    0.0000 C   0  0  3  0  0  0  0  0  0  0  0  0
    1.4289   -2.4750    0.0000 C   0  0  0  0  0  0  0  0  0  0  0  0
    0.7145   -2.8875    0.0000 O   0  0  0  0  0  0  0  0  0  0  0  0
    0.7145   -3.7125    0.0000 C   0  0  0  0  0  0  0  0  0  0  0  0
    1.4289   -4.1250    0.0000 C   0  0  0  0  0  0  0  0  0  0  0  0
    1.4289   -4.9500    0.0000 C   0  0  0  0  0  0  0  0  0  0  0  0
    0.7145   -5.3625    0.0000 C   0  0  0  0  0  0  0  0  0  0  0  0
    0.0000   -4.9500    0.0000 C   0  0  0  0  0  0  0  0  0  0  0  0
    0.0000   -4.1250    0.0000 C   0  0  0  0  0  0  0  0  0  0  0  0
   -0.7145   -3.7125    0.0000 C   0  0  0  0  0  0  0  0  0  0  0  0
   -0.7145   -2.8875    0.0000 O   0  0  0  0  0  0  0  0  0  0  0  0
   -1.4289   -4.1250    0.0000 C   0  0  0  0  0  0  0  0  0  0  0  0
   -2.1434   -3.7125    0.0000 C   0  0  0  0  0  0  0  0  0  0  0  0
   -2.8579   -4.1250    0.0000 C   0  0  0  0  0  0  0  0  0  0  0  0
   -2.8579   -4.9500    0.0000 C   0  0  0  0  0  0  0  0  0  0  0  0
   -3.5724   -5.3625    0.0000 C   0  0  0  0  0  0  0  0  0  0  0  0
   -4.2868   -4.9500    0.0000 C   0  0  0  0  0  0  0  0  0  0  0  0
   -4.2868   -4.1250    0.0000 C   0  0  0  0  0  0  0  0  0  0  0  0
   -3.5724   -3.7125    0.0000 C   0  0  0  0  0  0  0  0  0  0  0  0
    2.8579   -2.4750    0.0000 C   0  0  0  0  0  0  0  0  0  0  0  0
    3.5724   -2.8875    0.0000 N   0  0  0  0  0  0  0  0  0  0  0  0
    4.2868   -2.4750    0.0000 C   0  0  0  0  0  0  0  0  0  0  0  0
    5.0013   -2.8875    0.0000 C   0  0  0  0  0  0  0  0  0  0  0  0
    5.0013   -3.7125    0.0000 O   0  0  0  0  0  0  0  0  0  0  0  0
    4.2868   -4.1250    0.0000 C   0  0  0  0  0  0  0  0  0  0  0  0
    3.5724   -3.7125    0.0000 C   0  0  0  0  0  0  0  0  0  0  0  0
  1  2  1  0  0  0  0
  2  3  1  0  0  0  0
  2 21  1  0  0  0  0
  3  4  1  0  0  0  0
  4  5  1  0  0  0  0
  5  6  2  0  0  0  0
  5 10  1  0  0  0  0
  6  7  1  0  0  0  0
  7  8  2  0  0  0  0
  8  9  1  0  0  0  0
  9 10  2  0  0  0  0
 10 11  1  0  0  0  0
 11 12  2  0  0  0  0
 11 13  1  0  0  0  0
 13 14  1  0  0  0  0
 14 15  1  0  0  0  0
 15 16  2  0  0  0  0
 15 20  1  0  0  0  0
 16 17  1  0  0  0  0
 17 18  2  0  0  0  0
 18 19  1  0  0  0  0
 19 20  2  0  0  0  0
 21 22  1  0  0  0  0
 22 23  1  0  0  0  0
 22 27  1  0  0  0  0
 23 24  1  0  0  0  0
 24 25  1  0  0  0  0
 25 26  1  0  0  0  0
 26 27  1  0  0  0  0
M  END
$$$$

 OpenBabel12191814062D

 27 29  0  0  0  0  0  0  0  0999 V2000
    2.1434   -3.7125    0.0000 O   0  0  0  0  0  0  0  0  0  0  0  0
    2.1434   -2.8875    0.0000 C   0  0  3  0  0  0  0  0  0  0  0  0
    1.4289   -2.4750    0.0000 C   0  0  0  0  0  0  0  0  0  0  0  0
    0.7145   -2.8875    0.0000 O   0  0  0  0  0  0  0  0  0  0  0  0
    0.7145   -3.7125    0.0000 C   0  0  0  0  0  0  0  0  0  0  0  0
    1.4289   -4.1250    0.0000 C   0  0  0  0  0  0  0  0  0  0  0  0
    1.4289   -4.9500    0.0000 C   0  0  0  0  0  0  0  0  0  0  0  0
    0.7145   -5.3625    0.0000 C   0  0  0  0  0  0  0  0  0  0  0  0
    0.0000   -4.9500    0.0000 C   0  0  0  0  0  0  0  0  0  0  0  0
    0.0000   -4.1250    0.0000 C   0  0  0  0  0  0  0  0  0  0  0  0
   -0.7145   -3.7125    0.0000 C   0  0  3  0  0  0  0  0  0  0  0  0
   -0.7145   -2.8875    0.0000 O   0  0  0  0  0  0  0  0  0  0  0  0
   -1.4289   -4.1250    0.0000 C   0  0  0  0  0  0  0  0  0  0  0  0
   -2.1434   -3.7125    0.0000 C   0  0  0  0  0  0  0  0  0  0  0  0
   -2.8579   -4.1250    0.0000 C   0  0  0  0  0  0  0  0  0  0  0  0
   -2.8579   -4.9500    0.0000 C   0  0  0  0  0  0  0  0  0  0  0  0
   -3.5724   -5.3625    0.0000 C   0  0  0  0  0  0  0  0  0  0  0  0
   -4.2868   -4.9500    0.0000 C   0  0  0  0  0  0  0  0  0  0  0  0
   -4.2868   -4.1250    0.0000 C   0  0  0  0  0  0  0  0  0  0  0  0
   -3.5724   -3.7125    0.0000 C   0  0  0  0  0  0  0  0  0  0  0  0
    2.8579   -2.4750    0.0000 C   0  0  0  0  0  0  0  0  0  0  0  0
    3.5724   -2.8875    0.0000 N   0  0  0  0  0  0  0  0  0  0  0  0
    4.2868   -2.4750    0.0000 C   0  0  0  0  0  0  0  0  0  0  0  0
    5.0013   -2.8875    0.0000 C   0  0  0  0  0  0  0  0  0  0  0  0
    5.0013   -3.7125    0.0000 C   0  0  0  0  0  0  0  0  0  0  0  0
    4.2868   -4.1250    0.0000 C   0  0  0  0  0  0  0  0  0  0  0  0
    3.5724   -3.7125    0.0000 C   0  0  0  0  0  0  0  0  0  0  0  0
  1  2  1  0  0  0  0
  2  3  1  0  0  0  0
  2 21  1  0  0  0  0
  3  4  1  0  0  0  0
  4  5  1  0  0  0  0
  5  6  2  0  0  0  0
  5 10  1  0  0  0  0
  6  7  1  0  0  0  0
  7  8  2  0  0  0  0
  8  9  1  0  0  0  0
  9 10  2  0  0  0  0
 10 11  1  0  0  0  0
 11 12  1  0  0  0  0
 11 13  1  0  0  0  0
 13 14  1  0  0  0  0
 14 15  1  0  0  0  0
 15 16  2  0  0  0  0
 15 20  1  0  0  0  0
 16 17  1  0  0  0  0
 17 18  2  0  0  0  0
 18 19  1  0  0  0  0
 19 20  2  0  0  0  0
 21 22  1  0  0  0  0
 22 23  1  0  0  0  0
 22 27  1  0  0  0  0
 23 24  1  0  0  0  0
 24 25  1  0  0  0  0
 25 26  1  0  0  0  0
 26 27  1  0  0  0  0
M  END
$$$$

 OpenBabel12191814062D

 34 37  0  0  0  0  0  0  0  0999 V2000
    5.0013   -3.7125    0.0000 O   0  0  0  0  0  0  0  0  0  0  0  0
    5.0013   -2.8875    0.0000 C   0  0  3  0  0  0  0  0  0  0  0  0
    4.2868   -2.4750    0.0000 C   0  0  0  0  0  0  0  0  0  0  0  0
    3.5724   -2.8875    0.0000 O   0  0  0  0  0  0  0  0  0  0  0  0
    3.5724   -3.7125    0.0000 C   0  0  0  0  0  0  0  0  0  0  0  0
    4.2868   -4.1250    0.0000 C   0  0  0  0  0  0  0  0  0  0  0  0
    4.2868   -4.9500    0.0000 C   0  0  0  0  0  0  0  0  0  0  0  0
    3.5724   -5.3625    0.0000 C   0  0  0  0  0  0  0  0  0  0  0  0
    2.8579   -4.9500    0.0000 C   0  0  0  0  0  0  0  0  0  0  0  0
    2.8579   -4.1250    0.0000 C   0  0  0  0  0  0  0  0  0  0  0  0
    2.1434   -3.7125    0.0000 C   0  0  3  0  0  0  0  0  0  0  0  0
    2.1434   -2.8875    0.0000 O   0  0  0  0  0  0  0  0  0  0  0  0
    1.4289   -4.1250    0.0000 C   0  0  0  0  0  0  0  0  0  0  0  0
    0.7145   -3.7125    0.0000 C   0  0  0  0  0  0  0  0  0  0  0  0
    0.0000   -4.1250    0.0000 C   0  0  0  0  0  0  0  0  0  0  0  0
    0.0000   -4.9500    0.0000 C   0  0  0  0  0  0  0  0  0  0  0  0
   -0.7145   -5.3625    0.0000 C   0  0  0  0  0  0  0  0  0  0  0  0
   -1.4289   -4.9500    0.0000 C   0  0  0  0  0  0  0  0  0  0  0  0
   -1.4289   -4.1250    0.0000 C   0  0  0  0  0  0  0  0  0  0  0  0
   -0.7145   -3.7125    0.0000 C   0  0  0  0  0  0  0  0  0  0  0  0
    5.7158   -2.4750    0.0000 C   0  0  0  0  0  0  0  0  0  0  0  0
    6.4302   -2.8875    0.0000 N   0  0  0  0  0  0  0  0  0  0  0  0
    7.1447   -2.4750    0.0000 C   0  0  0  0  0  0  0  0  0  0  0  0
    7.8592   -2.8875    0.0000 C   0  0  0  0  0  0  0  0  0  0  0  0
    7.8592   -3.7125    0.0000 N   0  0  0  0  0  0  0  0  0  0  0  0
    7.1447   -4.1250    0.0000 C   0  0  0  0  0  0  0  0  0  0  0  0
    6.4302   -3.7125    0.0000 C   0  0  0  0  0  0  0  0  0  0  0  0
    8.5737   -4.1250    0.0000 C   0  0  0  0  0  0  0  0  0  0  0  0
    9.2881   -3.7125    0.0000 C   0  0  0  0  0  0  0  0  0  0  0  0
   10.0026   -4.1250    0.0000 C   0  0  0  0  0  0  0  0  0  0  0  0
   10.0026   -4.9500    0.0000 C   0  0  0  0  0  0  0  0  0  0  0  0
   10.7171   -5.3625    0.0000 F   0  0  0  0  0  0  0  0  0  0  0  0
    9.2881   -5.3625    0.0000 C   0  0  0  0  0  0  0  0  0  0  0  0
    8.5737   -4.9500    0.0000 C   0  0  0  0  0  0  0  0  0  0  0  0
  1  2  1  0  0  0  0
  2  3  1  0  0  0  0
  2 21  1  0  0  0  0
  3  4  1  0  0  0  0
  4  5  1  0  0  0  0
  5  6  2  0  0  0  0
  5 10  1  0  0  0  0
  6  7  1  0  0  0  0
  7  8  2  0  0  0  0
  8  9  1  0  0  0  0
  9 10  2  0  0  0  0
 10 11  1  0  0  0  0
 11 12  1  0  0  0  0
 11 13  1  0  0  0  0
 13 14  1  0  0  0  0
 14 15  1  0  0  0  0
 15 16  2  0  0  0  0
 15 20  1  0  0  0  0
 16 17  1  0  0  0  0
 17 18  2  0  0  0  0
 18 19  1  0  0  0  0
 19 20  2  0  0  0  0
 21 22  1  0  0  0  0
 22 23  1  0  0  0  0
 22 27  1  0  0  0  0
 23 24  1  0  0  0  0
 24 25  1  0  0  0  0
 25 26  1  0  0  0  0
 25 28  1  0  0  0  0
 26 27  1  0  0  0  0
 28 29  2  0  0  0  0
 28 34  1  0  0  0  0
 29 30  1  0  0  0  0
 30 31  2  0  0  0  0
 31 32  1  0  0  0  0
 31 33  1  0  0  0  0
 33 34  2  0  0  0  0
M  END
$$$$

 OpenBabel12191814062D

 27 29  0  0  0  0  0  0  0  0999 V2000
    2.1434   -3.7125    0.0000 O   0  0  0  0  0  0  0  0  0  0  0  0
    2.1434   -2.8875    0.0000 C   0  0  3  0  0  0  0  0  0  0  0  0
    1.4289   -2.4750    0.0000 C   0  0  0  0  0  0  0  0  0  0  0  0
    0.7145   -2.8875    0.0000 O   0  0  0  0  0  0  0  0  0  0  0  0
    0.7145   -3.7125    0.0000 C   0  0  0  0  0  0  0  0  0  0  0  0
    1.4289   -4.1250    0.0000 C   0  0  0  0  0  0  0  0  0  0  0  0
    1.4289   -4.9500    0.0000 C   0  0  0  0  0  0  0  0  0  0  0  0
    0.7145   -5.3625    0.0000 C   0  0  0  0  0  0  0  0  0  0  0  0
    0.0000   -4.9500    0.0000 C   0  0  0  0  0  0  0  0  0  0  0  0
    0.0000   -4.1250    0.0000 C   0  0  0  0  0  0  0  0  0  0  0  0
   -0.7145   -3.7125    0.0000 C   0  0  3  0  0  0  0  0  0  0  0  0
   -0.7145   -2.8875    0.0000 O   0  0  0  0  0  0  0  0  0  0  0  0
   -1.4289   -4.1250    0.0000 C   0  0  0  0  0  0  0  0  0  0  0  0
   -2.1434   -3.7125    0.0000 C   0  0  0  0  0  0  0  0  0  0  0  0
   -2.8579   -4.1250    0.0000 C   0  0  0  0  0  0  0  0  0  0  0  0
   -2.8579   -4.9500    0.0000 C   0  0  0  0  0  0  0  0  0  0  0  0
   -3.5724   -5.3625    0.0000 C   0  0  0  0  0  0  0  0  0  0  0  0
   -4.2868   -4.9500    0.0000 C   0  0  0  0  0  0  0  0  0  0  0  0
   -4.2868   -4.1250    0.0000 C   0  0  0  0  0  0  0  0  0  0  0  0
   -3.5724   -3.7125    0.0000 C   0  0  0  0  0  0  0  0  0  0  0  0
    2.8579   -2.4750    0.0000 C   0  0  0  0  0  0  0  0  0  0  0  0
    3.5724   -2.8875    0.0000 N   0  0  0  0  0  0  0  0  0  0  0  0
    4.2868   -2.4750    0.0000 C   0  0  0  0  0  0  0  0  0  0  0  0
    5.0013   -2.8875    0.0000 C   0  0  0  0  0  0  0  0  0  0  0  0
    5.0013   -3.7125    0.0000 O   0  0  0  0  0  0  0  0  0  0  0  0
    4.2868   -4.1250    0.0000 C   0  0  0  0  0  0  0  0  0  0  0  0
    3.5724   -3.7125    0.0000 C   0  0  0  0  0  0  0  0  0  0  0  0
  1  2  1  0  0  0  0
  2  3  1  0  0  0  0
  2 21  1  0  0  0  0
  3  4  1  0  0  0  0
  4  5  1  0  0  0  0
  5  6  2  0  0  0  0
  5 10  1  0  0  0  0
  6  7  1  0  0  0  0
  7  8  2  0  0  0  0
  8  9  1  0  0  0  0
  9 10  2  0  0  0  0
 10 11  1  0  0  0  0
 11 12  1  0  0  0  0
 11 13  1  0  0  0  0
 13 14  1  0  0  0  0
 14 15  1  0  0  0  0
 15 16  2  0  0  0  0
 15 20  1  0  0  0  0
 16 17  1  0  0  0  0
 17 18  2  0  0  0  0
 18 19  1  0  0  0  0
 19 20  2  0  0  0  0
 21 22  1  0  0  0  0
 22 23  1  0  0  0  0
 22 27  1  0  0  0  0
 23 24  1  0  0  0  0
 24 25  1  0  0  0  0
 25 26  1  0  0  0  0
 26 27  1  0  0  0  0
M  END
$$$$

 OpenBabel12191814062D

 26 28  0  0  0  0  0  0  0  0999 V2000
   -1.1168   -5.5090    0.0000 O   0  0  0  0  0  0  0  0  0  0  0  0
   -0.8347   -4.7337    0.0000 C   0  0  0  0  0  0  0  0  0  0  0  0
   -0.8347   -3.9087    0.0000 C   0  0  0  0  0  0  0  0  0  0  0  0
   -0.1202   -3.4962    0.0000 C   0  0  0  0  0  0  0  0  0  0  0  0
    0.5943   -3.9087    0.0000 N   0  0  0  0  0  0  0  0  0  0  0  0
    1.3087   -3.4962    0.0000 C   0  0  0  0  0  0  0  0  0  0  0  0
    2.0232   -3.9087    0.0000 C   0  0  0  0  0  0  0  0  0  0  0  0
    2.7377   -3.4962    0.0000 C   0  0  0  0  0  0  0  0  0  0  0  0
    3.4521   -3.9087    0.0000 C   0  0  0  0  0  0  0  0  0  0  0  0
    3.4521   -4.7337    0.0000 O   0  0  0  0  0  0  0  0  0  0  0  0
    4.1666   -3.4962    0.0000 C   0  0  0  0  0  0  0  0  0  0  0  0
    4.1666   -2.6712    0.0000 C   0  0  0  0  0  0  0  0  0  0  0  0
    4.8811   -2.2587    0.0000 C   0  0  0  0  0  0  0  0  0  0  0  0
    5.5956   -2.6712    0.0000 C   0  0  0  0  0  0  0  0  0  0  0  0
    6.3100   -2.2587    0.0000 F   0  0  0  0  0  0  0  0  0  0  0  0
    5.5956   -3.4962    0.0000 C   0  0  0  0  0  0  0  0  0  0  0  0
    4.8811   -3.9087    0.0000 C   0  0  0  0  0  0  0  0  0  0  0  0
    0.5943   -4.7337    0.0000 C   0  0  0  0  0  0  0  0  0  0  0  0
   -0.1202   -5.1462    0.0000 C   0  0  0  0  0  0  0  0  0  0  0  0
   -1.6471   -4.5904    0.0000 C   0  0  0  0  0  0  0  0  0  0  0  0
   -2.1774   -5.2224    0.0000 C   0  0  0  0  0  0  0  0  0  0  0  0
   -2.9899   -5.0792    0.0000 C   0  0  0  0  0  0  0  0  0  0  0  0
   -3.2721   -4.3039    0.0000 C   0  0  0  0  0  0  0  0  0  0  0  0
   -4.0845   -4.1607    0.0000 Cl  0  0  0  0  0  0  0  0  0  0  0  0
   -2.7418   -3.6719    0.0000 C   0  0  0  0  0  0  0  0  0  0  0  0
   -1.9293   -3.8152    0.0000 C   0  0  0  0  0  0  0  0  0  0  0  0
  1  2  1  0  0  0  0
  2  3  1  0  0  0  0
  2 19  1  0  0  0  0
  2 20  1  0  0  0  0
  3  4  1  0  0  0  0
  4  5  1  0  0  0  0
  5  6  1  0  0  0  0
  5 18  1  0  0  0  0
  6  7  1  0  0  0  0
  7  8  1  0  0  0  0
  8  9  1  0  0  0  0
  9 10  2  0  0  0  0
  9 11  1  0  0  0  0
 11 12  2  0  0  0  0
 11 17  1  0  0  0  0
 12 13  1  0  0  0  0
 13 14  2  0  0  0  0
 14 15  1  0  0  0  0
 14 16  1  0  0  0  0
 16 17  2  0  0  0  0
 18 19  1  0  0  0  0
 20 21  2  0  0  0  0
 20 26  1  0  0  0  0
 21 22  1  0  0  0  0
 22 23  2  0  0  0  0
 23 24  1  0  0  0  0
 23 25  1  0  0  0  0
 25 26  2  0  0  0  0
M  END
$$$$

 OpenBabel12191814062D

 29 31  0  0  0  0  0  0  0  0999 V2000
   -1.1168   -5.5090    0.0000 O   0  0  0  0  0  0  0  0  0  0  0  0
   -0.8347   -4.7337    0.0000 C   0  0  0  0  0  0  0  0  0  0  0  0
   -0.8347   -3.9087    0.0000 C   0  0  0  0  0  0  0  0  0  0  0  0
   -0.1202   -3.4962    0.0000 C   0  0  0  0  0  0  0  0  0  0  0  0
    0.5943   -3.9087    0.0000 N   0  0  0  0  0  0  0  0  0  0  0  0
    1.3087   -3.4962    0.0000 C   0  0  0  0  0  0  0  0  0  0  0  0
    2.0232   -3.9087    0.0000 C   0  0  0  0  0  0  0  0  0  0  0  0
    2.7377   -3.4962    0.0000 C   0  0  0  0  0  0  0  0  0  0  0  0
    3.4521   -3.9087    0.0000 C   0  0  0  0  0  0  0  0  0  0  0  0
    3.4521   -4.7337    0.0000 O   0  0  0  0  0  0  0  0  0  0  0  0
    4.1666   -3.4962    0.0000 C   0  0  0  0  0  0  0  0  0  0  0  0
    4.1666   -2.6712    0.0000 C   0  0  0  0  0  0  0  0  0  0  0  0
    4.8811   -2.2587    0.0000 C   0  0  0  0  0  0  0  0  0  0  0  0
    5.5956   -2.6712    0.0000 C   0  0  0  0  0  0  0  0  0  0  0  0
    6.3100   -2.2587    0.0000 F   0  0  0  0  0  0  0  0  0  0  0  0
    5.5956   -3.4962    0.0000 C   0  0  0  0  0  0  0  0  0  0  0  0
    4.8811   -3.9087    0.0000 C   0  0  0  0  0  0  0  0  0  0  0  0
    0.5943   -4.7337    0.0000 C   0  0  0  0  0  0  0  0  0  0  0  0
   -0.1202   -5.1462    0.0000 C   0  0  0  0  0  0  0  0  0  0  0  0
   -1.6471   -4.5904    0.0000 C   0  0  0  0  0  0  0  0  0  0  0  0
   -2.1774   -5.2224    0.0000 C   0  0  0  0  0  0  0  0  0  0  0  0
   -2.9899   -5.0792    0.0000 C   0  0  0  0  0  0  0  0  0  0  0  0
   -3.2721   -4.3039    0.0000 C   0  0  0  0  0  0  0  0  0  0  0  0
   -2.7418   -3.6719    0.0000 C   0  0  0  0  0  0  0  0  0  0  0  0
   -1.9293   -3.8152    0.0000 C   0  0  0  0  0  0  0  0  0  0  0  0
   -3.0239   -2.8967    0.0000 C   0  0  0  0  0  0  0  0  0  0  0  0
   -3.3061   -2.1214    0.0000 F   0  0  0  0  0  0  0  0  0  0  0  0
   -2.2487   -2.6145    0.0000 F   0  0  0  0  0  0  0  0  0  0  0  0
   -3.7992   -3.1789    0.0000 F   0  0  0  0  0  0  0  0  0  0  0  0
  1  2  1  0  0  0  0
  2  3  1  0  0  0  0
  2 19  1  0  0  0  0
  2 20  1  0  0  0  0
  3  4  1  0  0  0  0
  4  5  1  0  0  0  0
  5  6  1  0  0  0  0
  5 18  1  0  0  0  0
  6  7  1  0  0  0  0
  7  8  1  0  0  0  0
  8  9  1  0  0  0  0
  9 10  2  0  0  0  0
  9 11  1  0  0  0  0
 11 12  2  0  0  0  0
 11 17  1  0  0  0  0
 12 13  1  0  0  0  0
 13 14  2  0  0  0  0
 14 15  1  0  0  0  0
 14 16  1  0  0  0  0
 16 17  2  0  0  0  0
 18 19  1  0  0  0  0
 20 21  2  0  0  0  0
 20 25  1  0  0  0  0
 21 22  1  0  0  0  0
 22 23  2  0  0  0  0
 23 24  1  0  0  0  0
 24 25  2  0  0  0  0
 24 26  1  0  0  0  0
 26 27  1  0  0  0  0
 26 28  1  0  0  0  0
 26 29  1  0  0  0  0
M  END
$$$$

 OpenBabel12191814062D

 36 39  0  0  0  0  0  0  0  0999 V2000
    0.7145   -0.4125    0.0000 O   0  0  0  0  0  0  0  0  0  0  0  0
    1.2448   -1.0445    0.0000 C   0  0  0  0  0  0  0  0  0  0  0  0
    1.9592   -1.4570    0.0000 C   0  0  0  0  0  0  0  0  0  0  0  0
    1.9592   -2.2820    0.0000 C   0  0  0  0  0  0  0  0  0  0  0  0
    1.2448   -2.6945    0.0000 N   0  0  0  0  0  0  0  0  0  0  0  0
    1.2448   -3.5195    0.0000 C   0  0  0  0  0  0  0  0  0  0  0  0
    0.5303   -3.9320    0.0000 C   0  0  0  0  0  0  0  0  0  0  0  0
    0.5303   -4.7570    0.0000 C   0  0  0  0  0  0  0  0  0  0  0  0
   -0.1842   -5.1695    0.0000 C   0  0  0  0  0  0  0  0  0  0  0  0
   -0.1842   -5.9945    0.0000 C   0  0  0  0  0  0  0  0  0  0  0  0
    0.5303   -6.4070    0.0000 C   0  0  0  0  0  0  0  0  0  0  0  0
    0.5303   -7.2320    0.0000 C   0  0  0  0  0  0  0  0  0  0  0  0
   -0.1842   -7.6445    0.0000 C   0  0  0  0  0  0  0  0  0  0  0  0
   -0.1842   -8.4695    0.0000 F   0  0  0  0  0  0  0  0  0  0  0  0
   -0.8986   -7.2320    0.0000 C   0  0  0  0  0  0  0  0  0  0  0  0
   -0.8986   -6.4070    0.0000 C   0  0  0  0  0  0  0  0  0  0  0  0
   -0.8986   -4.7570    0.0000 C   0  0  0  0  0  0  0  0  0  0  0  0
   -1.6131   -5.1695    0.0000 C   0  0  0  0  0  0  0  0  0  0  0  0
   -2.3276   -4.7570    0.0000 C   0  0  0  0  0  0  0  0  0  0  0  0
   -2.3276   -3.9320    0.0000 C   0  0  0  0  0  0  0  0  0  0  0  0
   -3.0421   -3.5195    0.0000 F   0  0  0  0  0  0  0  0  0  0  0  0
   -1.6131   -3.5195    0.0000 C   0  0  0  0  0  0  0  0  0  0  0  0
   -0.8986   -3.9320    0.0000 C   0  0  0  0  0  0  0  0  0  0  0  0
    0.5303   -2.2820    0.0000 C   0  0  0  0  0  0  0  0  0  0  0  0
    0.5303   -1.4570    0.0000 C   0  0  0  0  0  0  0  0  0  0  0  0
    1.7751   -0.4125    0.0000 C   0  0  0  0  0  0  0  0  0  0  0  0
    1.4929    0.3627    0.0000 C   0  0  0  0  0  0  0  0  0  0  0  0
    2.0232    0.9947    0.0000 C   0  0  0  0  0  0  0  0  0  0  0  0
    2.8357    0.8515    0.0000 C   0  0  0  0  0  0  0  0  0  0  0  0
    3.3660    1.4835    0.0000 Cl  0  0  0  0  0  0  0  0  0  0  0  0
    3.1178    0.0762    0.0000 C   0  0  0  0  0  0  0  0  0  0  0  0
    2.5875   -0.5558    0.0000 C   0  0  0  0  0  0  0  0  0  0  0  0
    3.9303   -0.0670    0.0000 C   0  0  0  0  0  0  0  0  0  0  0  0
    4.7428   -0.2103    0.0000 F   0  0  0  0  0  0  0  0  0  0  0  0
    3.7870   -0.8795    0.0000 F   0  0  0  0  0  0  0  0  0  0  0  0
    4.0736    0.7454    0.0000 F   0  0  0  0  0  0  0  0  0  0  0  0
  1  2  1  0  0  0  0
  2  3  1  0  0  0  0
  2 25  1  0  0  0  0
  2 26  1  0  0  0  0
  3  4  1  0  0  0  0
  4  5  1  0  0  0  0
  5  6  1  0  0  0  0
  5 24  1  0  0  0  0
  6  7  1  0  0  0  0
  7  8  1  0  0  0  0
  8  9  1  0  0  0  0
  9 10  1  0  0  0  0
  9 17  1  0  0  0  0
 10 11  2  0  0  0  0
 10 16  1  0  0  0  0
 11 12  1  0  0  0  0
 12 13  2  0  0  0  0
 13 14  1  0  0  0  0
 13 15  1  0  0  0  0
 15 16  2  0  0  0  0
 17 18  2  0  0  0  0
 17 23  1  0  0  0  0
 18 19  1  0  0  0  0
 19 20  2  0  0  0  0
 20 21  1  0  0  0  0
 20 22  1  0  0  0  0
 22 23  2  0  0  0  0
 24 25  1  0  0  0  0
 26 27  2  0  0  0  0
 26 32  1  0  0  0  0
 27 28  1  0  0  0  0
 28 29  2  0  0  0  0
 29 30  1  0  0  0  0
 29 31  1  0  0  0  0
 31 32  2  0  0  0  0
 31 33  1  0  0  0  0
 33 34  1  0  0  0  0
 33 35  1  0  0  0  0
 33 36  1  0  0  0  0
M  END
$$$$

 OpenBabel12191814062D

 21 24  0  0  0  0  0  0  0  0999 V2000
    2.1434    2.0625    0.0000 O   0  0  0  0  0  0  0  0  0  0  0  0
    2.1434    1.2375    0.0000 C   0  0  0  0  0  0  0  0  0  0  0  0
    2.8579    0.8250    0.0000 C   0  0  0  0  0  0  0  0  0  0  0  0
    3.6425    1.0799    0.0000 O   0  0  0  0  0  0  0  0  0  0  0  0
    4.1274    0.4125    0.0000 C   0  0  0  0  0  0  0  0  0  0  0  0
    3.6425   -0.2549    0.0000 O   0  0  0  0  0  0  0  0  0  0  0  0
    2.8579    0.0000    0.0000 C   0  0  0  0  0  0  0  0  0  0  0  0
    2.1434   -0.4125    0.0000 C   0  0  0  0  0  0  0  0  0  0  0  0
    1.4289    0.0000    0.0000 C   0  0  0  0  0  0  0  0  0  0  0  0
    0.7145   -0.4125    0.0000 O   0  0  0  0  0  0  0  0  0  0  0  0
    0.0000    0.0000    0.0000 C   0  0  0  0  0  0  0  0  0  0  0  0
    0.0000    0.8250    0.0000 C   0  0  0  0  0  0  0  0  0  0  0  0
    0.7145    1.2375    0.0000 C   0  0  0  0  0  0  0  0  0  0  0  0
    0.7145    2.0625    0.0000 O   0  0  0  0  0  0  0  0  0  0  0  0
    1.4289    0.8250    0.0000 C   0  0  0  0  0  0  0  0  0  0  0  0
   -0.7145   -0.4125    0.0000 C   0  0  0  0  0  0  0  0  0  0  0  0
   -0.7145   -1.2375    0.0000 C   0  0  0  0  0  0  0  0  0  0  0  0
   -1.4289   -1.6500    0.0000 C   0  0  0  0  0  0  0  0  0  0  0  0
   -2.1434   -1.2375    0.0000 C   0  0  0  0  0  0  0  0  0  0  0  0
   -2.1434   -0.4125    0.0000 C   0  0  0  0  0  0  0  0  0  0  0  0
   -1.4289    0.0000    0.0000 C   0  0  0  0  0  0  0  0  0  0  0  0
  1  2  1  0  0  0  0
  2  3  2  0  0  0  0
  2 15  1  0  0  0  0
  3  4  1  0  0  0  0
  3  7  1  0  0  0  0
  4  5  1  0  0  0  0
  5  6  1  0  0  0  0
  6  7  1  0  0  0  0
  7  8  2  0  0  0  0
  8  9  1  0  0  0  0
  9 10  1  0  0  0  0
  9 15  2  0  0  0  0
 10 11  1  0  0  0  0
 11 12  2  0  0  0  0
 11 16  1  0  0  0  0
 12 13  1  0  0  0  0
 13 14  2  0  0  0  0
 13 15  1  0  0  0  0
 16 17  2  0  0  0  0
 16 21  1  0  0  0  0
 17 18  1  0  0  0  0
 18 19  2  0  0  0  0
 19 20  1  0  0  0  0
 20 21  2  0  0  0  0
M  END
$$$$

 OpenBabel12191814062D

 26 29  0  0  0  0  0  0  0  0999 V2000
    0.0000    0.0000    0.0000 O   0  0  0  0  0  0  0  0  0  0  0  0
    0.7145   -0.4125    0.0000 C   0  0  0  0  0  0  0  0  0  0  0  0
    1.4289    0.0000    0.0000 C   0  0  0  0  0  0  0  0  0  0  0  0
    2.1434   -0.4125    0.0000 C   0  0  0  0  0  0  0  0  0  0  0  0
    2.8579    0.0000    0.0000 O   0  0  0  0  0  0  0  0  0  0  0  0
    3.5724   -0.4125    0.0000 C   0  0  0  0  0  0  0  0  0  0  0  0
    3.5724   -1.2375    0.0000 C   0  0  0  0  0  0  0  0  0  0  0  0
    2.8579   -1.6500    0.0000 C   0  0  0  0  0  0  0  0  0  0  0  0
    2.8579   -2.4750    0.0000 O   0  0  0  0  0  0  0  0  0  0  0  0
    2.1434   -1.2375    0.0000 C   0  0  0  0  0  0  0  0  0  0  0  0
    1.4289   -1.6500    0.0000 C   0  0  0  0  0  0  0  0  0  0  0  0
    1.4289   -2.4750    0.0000 O   0  0  0  0  0  0  0  0  0  0  0  0
    0.7145   -1.2375    0.0000 C   0  0  0  0  0  0  0  0  0  0  0  0
    0.0000   -1.6500    0.0000 O   0  0  0  0  0  0  0  0  0  0  0  0
   -0.7145   -1.2375    0.0000 C   0  0  0  0  0  0  0  0  0  0  0  0
   -1.4289   -1.6500    0.0000 C   0  0  0  0  0  0  0  0  0  0  0  0
   -2.1434   -1.2375    0.0000 C   0  0  0  0  0  0  0  0  0  0  0  0
   -2.1434   -0.4125    0.0000 C   0  0  0  0  0  0  0  0  0  0  0  0
   -1.4289   -0.0000    0.0000 C   0  0  0  0  0  0  0  0  0  0  0  0
   -0.7145   -0.4125    0.0000 C   0  0  0  0  0  0  0  0  0  0  0  0
    4.2868   -0.0000    0.0000 C   0  0  0  0  0  0  0  0  0  0  0  0
    4.2868    0.8250    0.0000 C   0  0  0  0  0  0  0  0  0  0  0  0
    5.0013    1.2375    0.0000 C   0  0  0  0  0  0  0  0  0  0  0  0
    5.7158    0.8250    0.0000 C   0  0  0  0  0  0  0  0  0  0  0  0
    5.7158   -0.0000    0.0000 C   0  0  0  0  0  0  0  0  0  0  0  0
    5.0013   -0.4125    0.0000 C   0  0  0  0  0  0  0  0  0  0  0  0
  1  2  1  0  0  0  0
  2  3  2  0  0  0  0
  2 13  1  0  0  0  0
  3  4  1  0  0  0  0
  4  5  1  0  0  0  0
  4 10  2  0  0  0  0
  5  6  1  0  0  0  0
  6  7  2  0  0  0  0
  6 21  1  0  0  0  0
  7  8  1  0  0  0  0
  8  9  2  0  0  0  0
  8 10  1  0  0  0  0
 10 11  1  0  0  0  0
 11 12  1  0  0  0  0
 11 13  2  0  0  0  0
 13 14  1  0  0  0  0
 14 15  1  0  0  0  0
 15 16  2  0  0  0  0
 15 20  1  0  0  0  0
 16 17  1  0  0  0  0
 17 18  2  0  0  0  0
 18 19  1  0  0  0  0
 19 20  2  0  0  0  0
 21 22  2  0  0  0  0
 21 26  1  0  0  0  0
 22 23  1  0  0  0  0
 23 24  2  0  0  0  0
 24 25  1  0  0  0  0
 25 26  2  0  0  0  0
M  END
$$$$

 OpenBabel12191814062D

 20 22  0  0  0  0  0  0  0  0999 V2000
   -2.1434   -2.8875    0.0000 O   0  0  0  0  0  0  0  0  0  0  0  0
   -1.4289   -2.4750    0.0000 C   0  0  0  0  0  0  0  0  0  0  0  0
   -1.4289   -1.6500    0.0000 C   0  0  0  0  0  0  0  0  0  0  0  0
   -0.7145   -1.2375    0.0000 C   0  0  0  0  0  0  0  0  0  0  0  0
    0.0000   -1.6500    0.0000 C   0  0  0  0  0  0  0  0  0  0  0  0
    0.0000   -2.4750    0.0000 C   0  0  0  0  0  0  0  0  0  0  0  0
   -0.7145   -2.8875    0.0000 C   0  0  0  0  0  0  0  0  0  0  0  0
    0.7145   -1.2375    0.0000 C   0  0  3  0  0  0  0  0  0  0  0  0
    0.7145   -0.4125    0.0000 C   0  0  0  0  0  0  0  0  0  0  0  0
    1.4289    0.0000    0.0000 C   0  0  0  0  0  0  0  0  0  0  0  0
    1.4289    0.8250    0.0000 O   0  0  0  0  0  0  0  0  0  0  0  0
    2.1434   -0.4125    0.0000 C   0  0  0  0  0  0  0  0  0  0  0  0
    2.8579    0.0000    0.0000 C   0  0  0  0  0  0  0  0  0  0  0  0
    2.8579    0.8250    0.0000 O   0  0  0  0  0  0  0  0  0  0  0  0
    3.5724   -0.4125    0.0000 C   0  0  0  0  0  0  0  0  0  0  0  0
    3.5724   -1.2375    0.0000 C   0  0  0  0  0  0  0  0  0  0  0  0
    4.2868   -1.6500    0.0000 O   0  0  0  0  0  0  0  0  0  0  0  0
    2.8579   -1.6500    0.0000 C   0  0  0  0  0  0  0  0  0  0  0  0
    2.1434   -1.2375    0.0000 C   0  0  0  0  0  0  0  0  0  0  0  0
    1.4289   -1.6500    0.0000 O   0  0  0  0  0  0  0  0  0  0  0  0
  1  2  1  0  0  0  0
  2  3  2  0  0  0  0
  2  7  1  0  0  0  0
  3  4  1  0  0  0  0
  4  5  2  0  0  0  0
  5  6  1  0  0  0  0
  5  8  1  0  0  0  0
  6  7  2  0  0  0  0
  8  9  1  0  0  0  0
  8 20  1  0  0  0  0
  9 10  1  0  0  0  0
 10 11  2  0  0  0  0
 10 12  1  0  0  0  0
 12 13  2  0  0  0  0
 12 19  1  0  0  0  0
 13 14  1  0  0  0  0
 13 15  1  0  0  0  0
 15 16  2  0  0  0  0
 16 17  1  0  0  0  0
 16 18  1  0  0  0  0
 18 19  2  0  0  0  0
 19 20  1  0  0  0  0
M  END
$$$$

 OpenBabel12191814062D

 26 29  0  0  0  0  0  0  0  0999 V2000
    4.0668    2.3479    0.0000 O   0  0  0  0  0  0  0  0  0  0  0  0
    3.3523    1.9354    0.0000 C   0  0  0  0  0  0  0  0  0  0  0  0
    3.3523    1.1104    0.0000 C   0  0  0  0  0  0  0  0  0  0  0  0
    2.6378    0.6979    0.0000 C   0  0  0  0  0  0  0  0  0  0  0  0
    1.9233    1.1104    0.0000 C   0  0  0  0  0  0  0  0  0  0  0  0
    1.1387    0.8555    0.0000 N   0  0  0  0  0  0  0  0  0  0  0  0
    0.6538    1.5229    0.0000 C   0  0  0  0  0  0  0  0  0  0  0  0
    1.1387    2.1904    0.0000 C   0  0  0  0  0  0  0  0  0  0  0  0
    0.8838    2.9750    0.0000 C   0  0  0  0  0  0  0  0  0  0  0  0
    0.0768    3.1465    0.0000 C   0  0  0  0  0  0  0  0  0  0  0  0
   -0.1781    3.9312    0.0000 C   0  0  0  0  0  0  0  0  0  0  0  0
   -0.9851    4.1027    0.0000 C   0  0  0  0  0  0  0  0  0  0  0  0
   -1.2400    4.8873    0.0000 N   0  0  0  0  0  0  0  0  0  0  0  0
   -2.0470    5.0588    0.0000 C   0  0  0  0  0  0  0  0  0  0  0  0
   -2.3020    5.8434    0.0000 C   0  0  0  0  0  0  0  0  0  0  0  0
   -1.7499    6.4565    0.0000 C   0  0  0  0  0  0  0  0  0  0  0  0
   -0.9429    6.2850    0.0000 C   0  0  0  0  0  0  0  0  0  0  0  0
   -0.6880    5.5004    0.0000 C   0  0  0  0  0  0  0  0  0  0  0  0
   -2.0049    7.2412    0.0000 C   0  0  0  0  0  0  0  0  0  0  0  0
   -2.8118    7.4127    0.0000 C   0  0  0  0  0  0  0  0  0  0  0  0
   -3.0668    8.1973    0.0000 C   0  0  0  0  0  0  0  0  0  0  0  0
   -2.5147    8.8104    0.0000 C   0  0  0  0  0  0  0  0  0  0  0  0
   -1.7078    8.6389    0.0000 C   0  0  0  0  0  0  0  0  0  0  0  0
   -1.4528    7.8543    0.0000 C   0  0  0  0  0  0  0  0  0  0  0  0
    1.9233    1.9354    0.0000 C   0  0  0  0  0  0  0  0  0  0  0  0
    2.6378    2.3479    0.0000 C   0  0  0  0  0  0  0  0  0  0  0  0
  1  2  1  0  0  0  0
  2  3  2  0  0  0  0
  2 26  1  0  0  0  0
  3  4  1  0  0  0  0
  4  5  2  0  0  0  0
  5  6  1  0  0  0  0
  5 25  1  0  0  0  0
  6  7  1  0  0  0  0
  7  8  2  0  0  0  0
  8  9  1  0  0  0  0
  8 25  1  0  0  0  0
  9 10  1  0  0  0  0
 10 11  1  0  0  0  0
 11 12  1  0  0  0  0
 12 13  1  0  0  0  0
 13 14  1  0  0  0  0
 13 18  1  0  0  0  0
 14 15  1  0  0  0  0
 15 16  1  0  0  0  0
 16 17  2  0  0  0  0
 16 19  1  0  0  0  0
 17 18  1  0  0  0  0
 19 20  2  0  0  0  0
 19 24  1  0  0  0  0
 20 21  1  0  0  0  0
 21 22  2  0  0  0  0
 22 23  1  0  0  0  0
 23 24  2  0  0  0  0
 25 26  2  0  0  0  0
M  END
$$$$

 OpenBabel12191814062D

 35 39  0  0  0  0  0  0  0  0999 V2000
    2.8579   -2.4750    0.0000 O   0  0  0  0  0  0  0  0  0  0  0  0
    2.1434   -2.8875    0.0000 C   0  0  0  0  0  0  0  0  0  0  0  0
    2.1434   -3.7125    0.0000 C   0  0  0  0  0  0  0  0  0  0  0  0
    1.4289   -4.1250    0.0000 C   0  0  0  0  0  0  0  0  0  0  0  0
    0.7145   -3.7125    0.0000 C   0  0  0  0  0  0  0  0  0  0  0  0
    0.7145   -2.8875    0.0000 C   0  0  0  0  0  0  0  0  0  0  0  0
    1.4289   -2.4750    0.0000 C   0  0  0  0  0  0  0  0  0  0  0  0
    1.4289   -1.6500    0.0000 C   0  0  0  0  0  0  0  0  0  0  0  0
    0.7145   -1.2375    0.0000 N   0  0  0  0  0  0  0  0  0  0  0  0
    0.7145   -0.4125    0.0000 C   0  0  0  0  0  0  0  0  0  0  0  0
    1.4289    0.0000    0.0000 C   0  0  0  0  0  0  0  0  0  0  0  0
    2.1434   -0.4125    0.0000 C   0  0  0  0  0  0  0  0  0  0  0  0
    2.8579    0.0000    0.0000 C   0  0  0  0  0  0  0  0  0  0  0  0
    3.5724   -0.4125    0.0000 C   0  0  0  0  0  0  0  0  0  0  0  0
    3.5724   -1.2375    0.0000 C   0  0  0  0  0  0  0  0  0  0  0  0
    2.8579   -1.6500    0.0000 C   0  0  0  0  0  0  0  0  0  0  0  0
    2.1434   -1.2375    0.0000 C   0  0  0  0  0  0  0  0  0  0  0  0
    0.0000    0.0000    0.0000 N   0  0  0  0  0  0  0  0  0  0  0  0
   -0.7145   -0.4125    0.0000 C   0  0  0  0  0  0  0  0  0  0  0  0
   -1.4289    0.0000    0.0000 C   0  0  0  0  0  0  0  0  0  0  0  0
   -1.4289    0.8250    0.0000 N   0  0  0  0  0  0  0  0  0  0  0  0
   -2.1434    1.2375    0.0000 C   0  0  0  0  0  0  0  0  0  0  0  0
   -2.8579    0.8250    0.0000 C   0  0  0  0  0  0  0  0  0  0  0  0
   -3.5724    1.2375    0.0000 C   0  0  0  0  0  0  0  0  0  0  0  0
   -4.2868    0.8250    0.0000 C   0  0  0  0  0  0  0  0  0  0  0  0
   -4.2868    0.0000    0.0000 O   0  0  0  0  0  0  0  0  0  0  0  0
   -5.0013    1.2375    0.0000 C   0  0  0  0  0  0  0  0  0  0  0  0
   -5.7158    0.8250    0.0000 C   0  0  0  0  0  0  0  0  0  0  0  0
   -6.4302    1.2375    0.0000 C   0  0  0  0  0  0  0  0  0  0  0  0
   -6.4302    2.0625    0.0000 C   0  0  0  0  0  0  0  0  0  0  0  0
   -7.1447    2.4750    0.0000 F   0  0  0  0  0  0  0  0  0  0  0  0
   -5.7158    2.4750    0.0000 C   0  0  0  0  0  0  0  0  0  0  0  0
   -5.0013    2.0625    0.0000 C   0  0  0  0  0  0  0  0  0  0  0  0
   -0.7145    1.2375    0.0000 C   0  0  0  0  0  0  0  0  0  0  0  0
    0.0000    0.8250    0.0000 C   0  0  0  0  0  0  0  0  0  0  0  0
  1  2  1  0  0  0  0
  2  3  2  0  0  0  0
  2  7  1  0  0  0  0
  3  4  1  0  0  0  0
  4  5  2  0  0  0  0
  5  6  1  0  0  0  0
  6  7  2  0  0  0  0
  7  8  1  0  0  0  0
  8  9  2  0  0  0  0
  8 17  1  0  0  0  0
  9 10  1  0  0  0  0
 10 11  2  0  0  0  0
 10 18  1  0  0  0  0
 11 12  1  0  0  0  0
 12 13  2  0  0  0  0
 12 17  1  0  0  0  0
 13 14  1  0  0  0  0
 14 15  2  0  0  0  0
 15 16  1  0  0  0  0
 16 17  2  0  0  0  0
 18 19  1  0  0  0  0
 18 35  1  0  0  0  0
 19 20  1  0  0  0  0
 20 21  1  0  0  0  0
 21 22  1  0  0  0  0
 21 34  1  0  0  0  0
 22 23  1  0  0  0  0
 23 24  1  0  0  0  0
 24 25  1  0  0  0  0
 25 26  2  0  0  0  0
 25 27  1  0  0  0  0
 27 28  2  0  0  0  0
 27 33  1  0  0  0  0
 28 29  1  0  0  0  0
 29 30  2  0  0  0  0
 30 31  1  0  0  0  0
 30 32  1  0  0  0  0
 32 33  2  0  0  0  0
 34 35  1  0  0  0  0
M  END
$$$$

 OpenBabel12191814062D

 46 54  0  0  0  0  0  0  0  0999 V2000
    4.1712    1.2168    0.0000 O   0  0  0  0  0  0  0  0  0  0  0  0
    3.4192    1.5560    0.0000 C   0  0  0  0  0  0  0  0  0  0  0  0
    2.7494    1.0743    0.0000 C   0  0  3  0  0  0  0  0  0  0  0  0
    2.2247    0.6206    0.0000 C   0  0  3  0  0  0  0  0  0  0  0  0
    2.5343   -0.0646    0.0000 C   0  0  3  0  0  0  0  0  0  0  0  0
    3.1161    0.2104    0.0000 C   0  0  3  0  0  0  0  0  0  0  0  0
    2.6236   -0.5305    0.0000 N   0  0  0  0  0  0  0  0  0  0  0  0
    1.7549    0.2841    0.0000 C   0  0  3  0  0  0  0  0  0  0  0  0
    1.2511    1.2243    0.0000 C   0  0  3  0  0  0  0  0  0  0  0  0
    0.7406    0.5544    0.0000 C   0  0  3  0  0  0  0  0  0  0  0  0
    1.2962    0.7169    0.0000 N   0  0  0  0  0  0  0  0  0  0  0  0
    1.2216    1.5385    0.0000 C   0  0  0  0  0  0  0  0  0  0  0  0
    1.8958    2.0139    0.0000 O   0  0  0  0  0  0  0  0  0  0  0  0
    0.4727    1.8847    0.0000 O   0  0  0  0  0  0  0  0  0  0  0  0
   -0.2015    1.4093    0.0000 C   0  0  0  0  0  0  0  0  0  0  0  0
   -0.1269    0.5877    0.0000 C   0  0  0  0  0  0  0  0  0  0  0  0
   -0.8012    0.1123    0.0000 C   0  0  0  0  0  0  0  0  0  0  0  0
   -1.5500    0.4585    0.0000 C   0  0  0  0  0  0  0  0  0  0  0  0
   -1.6246    1.2801    0.0000 C   0  0  0  0  0  0  0  0  0  0  0  0
   -0.9504    1.7555    0.0000 C   0  0  0  0  0  0  0  0  0  0  0  0
    1.1211   -0.2222    0.0000 C   0  0  3  0  0  0  0  0  0  0  0  0
    0.2963   -0.2398    0.0000 C   0  0  0  0  0  0  0  0  0  0  0  0
   -0.1008   -0.9629    0.0000 O   0  0  0  0  0  0  0  0  0  0  0  0
    1.7862   -0.7084    0.0000 C   0  0  3  0  0  0  0  0  0  0  0  0
    1.8189   -1.5327    0.0000 C   0  0  0  0  0  0  0  0  0  0  0  0
    2.5491   -1.9166    0.0000 C   0  0  0  0  0  0  0  0  0  0  0  0
    2.5819   -2.7409    0.0000 C   0  0  0  0  0  0  0  0  0  0  0  0
    1.8843   -3.1814    0.0000 C   0  0  0  0  0  0  0  0  0  0  0  0
    1.1540   -2.7976    0.0000 C   0  0  0  0  0  0  0  0  0  0  0  0
    1.1213   -1.9733    0.0000 C   0  0  0  0  0  0  0  0  0  0  0  0
    2.0986    1.6512    0.0000 C   0  0  3  0  0  0  0  0  0  0  0  0
    2.2050    2.4693    0.0000 C   0  0  0  0  0  0  0  0  0  0  0  0
    1.5497    2.9705    0.0000 C   0  0  0  0  0  0  0  0  0  0  0  0
    1.6561    3.7886    0.0000 C   0  0  0  0  0  0  0  0  0  0  0  0
    2.4178    4.1055    0.0000 C   0  0  0  0  0  0  0  0  0  0  0  0
    3.0731    3.6043    0.0000 C   0  0  0  0  0  0  0  0  0  0  0  0
    2.9667    2.7862    0.0000 C   0  0  0  0  0  0  0  0  0  0  0  0
    2.7187   -1.3500    0.0000 C   0  0  0  0  0  0  0  0  0  0  0  0
    2.7275   -2.1749    0.0000 O   0  0  0  0  0  0  0  0  0  0  0  0
    3.4759   -1.6774    0.0000 O   0  0  0  0  0  0  0  0  0  0  0  0
    4.1381   -1.1854    0.0000 C   0  0  0  0  0  0  0  0  0  0  0  0
    4.0431   -0.3659    0.0000 C   0  0  0  0  0  0  0  0  0  0  0  0
    4.7053    0.1262    0.0000 C   0  0  0  0  0  0  0  0  0  0  0  0
    5.4625   -0.2013    0.0000 C   0  0  0  0  0  0  0  0  0  0  0  0
    5.5575   -1.0208    0.0000 C   0  0  0  0  0  0  0  0  0  0  0  0
    4.8953   -1.5129    0.0000 C   0  0  0  0  0  0  0  0  0  0  0  0
  1  2  1  0  0  0  0
  2  3  1  0  0  0  0
  3  4  1  0  0  0  0
  3  6  1  0  0  0  0
  3 31  1  0  0  0  0
  4  5  1  0  0  0  0
  4 11  1  0  0  0  0
  5  6  1  0  0  0  0
  5 24  1  0  0  0  0
  6  7  1  0  0  0  0
  7  8  1  0  0  0  0
  7 38  1  0  0  0  0
  8  9  1  0  0  0  0
  8 21  1  0  0  0  0
  9 10  1  0  0  0  0
  9 31  1  0  0  0  0
 10 11  1  0  0  0  0
 10 21  1  0  0  0  0
 11 12  1  0  0  0  0
 12 13  2  0  0  0  0
 12 14  1  0  0  0  0
 14 15  1  0  0  0  0
 15 16  2  0  0  0  0
 15 20  1  0  0  0  0
 16 17  1  0  0  0  0
 17 18  2  0  0  0  0
 18 19  1  0  0  0  0
 19 20  2  0  0  0  0
 21 22  1  0  0  0  0
 21 24  1  0  0  0  0
 22 23  1  0  0  0  0
 24 25  1  0  0  0  0
 25 26  2  0  0  0  0
 25 30  1  0  0  0  0
 26 27  1  0  0  0  0
 27 28  2  0  0  0  0
 28 29  1  0  0  0  0
 29 30  2  0  0  0  0
 31 32  1  0  0  0  0
 32 33  2  0  0  0  0
 32 37  1  0  0  0  0
 33 34  1  0  0  0  0
 34 35  2  0  0  0  0
 35 36  1  0  0  0  0
 36 37  2  0  0  0  0
 38 39  2  0  0  0  0
 38 40  1  0  0  0  0
 40 41  1  0  0  0  0
 41 42  2  0  0  0  0
 41 46  1  0  0  0  0
 42 43  1  0  0  0  0
 43 44  2  0  0  0  0
 44 45  1  0  0  0  0
 45 46  2  0  0  0  0
M  END
$$$$

 OpenBabel12191814062D

 42 50  0  0  0  0  0  0  0  0999 V2000
    4.1712    1.2168    0.0000 O   0  0  0  0  0  0  0  0  0  0  0  0
    3.4192    1.5560    0.0000 C   0  0  0  0  0  0  0  0  0  0  0  0
    2.7494    1.0743    0.0000 C   0  0  3  0  0  0  0  0  0  0  0  0
    2.2247    0.6206    0.0000 C   0  0  3  0  0  0  0  0  0  0  0  0
    2.5343   -0.0646    0.0000 C   0  0  3  0  0  0  0  0  0  0  0  0
    3.1161    0.2104    0.0000 C   0  0  3  0  0  0  0  0  0  0  0  0
    2.6236   -0.5305    0.0000 N   0  0  0  0  0  0  0  0  0  0  0  0
    2.7187   -1.3500    0.0000 C   0  0  0  0  0  0  0  0  0  0  0  0
    3.4759   -1.6774    0.0000 C   0  0  0  0  0  0  0  0  0  0  0  0
    4.1381   -1.1854    0.0000 C   0  0  0  0  0  0  0  0  0  0  0  0
    4.8953   -1.5129    0.0000 C   0  0  0  0  0  0  0  0  0  0  0  0
    4.9903   -2.3324    0.0000 C   0  0  0  0  0  0  0  0  0  0  0  0
    4.3281   -2.8244    0.0000 C   0  0  0  0  0  0  0  0  0  0  0  0
    3.5709   -2.4970    0.0000 C   0  0  0  0  0  0  0  0  0  0  0  0
    1.7549    0.2841    0.0000 C   0  0  3  0  0  0  0  0  0  0  0  0
    1.2511    1.2243    0.0000 C   0  0  3  0  0  0  0  0  0  0  0  0
    0.7406    0.5544    0.0000 C   0  0  3  0  0  0  0  0  0  0  0  0
    1.2962    0.7169    0.0000 N   0  0  0  0  0  0  0  0  0  0  0  0
    1.2216    1.5385    0.0000 C   0  0  0  0  0  0  0  0  0  0  0  0
    0.4727    1.8847    0.0000 C   0  0  0  0  0  0  0  0  0  0  0  0
   -0.2015    1.4093    0.0000 C   0  0  0  0  0  0  0  0  0  0  0  0
   -0.9504    1.7555    0.0000 C   0  0  0  0  0  0  0  0  0  0  0  0
   -1.0249    2.5771    0.0000 C   0  0  0  0  0  0  0  0  0  0  0  0
   -0.3507    3.0525    0.0000 C   0  0  0  0  0  0  0  0  0  0  0  0
    0.3981    2.7063    0.0000 C   0  0  0  0  0  0  0  0  0  0  0  0
    1.1211   -0.2222    0.0000 C   0  0  3  0  0  0  0  0  0  0  0  0
    0.2963   -0.2398    0.0000 C   0  0  0  0  0  0  0  0  0  0  0  0
   -0.1008   -0.9629    0.0000 O   0  0  0  0  0  0  0  0  0  0  0  0
    1.7862   -0.7084    0.0000 C   0  0  3  0  0  0  0  0  0  0  0  0
    1.8189   -1.5327    0.0000 C   0  0  0  0  0  0  0  0  0  0  0  0
    2.5491   -1.9166    0.0000 C   0  0  0  0  0  0  0  0  0  0  0  0
    2.5819   -2.7409    0.0000 C   0  0  0  0  0  0  0  0  0  0  0  0
    1.8843   -3.1814    0.0000 C   0  0  0  0  0  0  0  0  0  0  0  0
    1.1540   -2.7976    0.0000 C   0  0  0  0  0  0  0  0  0  0  0  0
    1.1213   -1.9733    0.0000 C   0  0  0  0  0  0  0  0  0  0  0  0
    2.0986    1.6512    0.0000 C   0  0  3  0  0  0  0  0  0  0  0  0
    2.2050    2.4693    0.0000 C   0  0  0  0  0  0  0  0  0  0  0  0
    1.5497    2.9705    0.0000 C   0  0  0  0  0  0  0  0  0  0  0  0
    1.6561    3.7886    0.0000 C   0  0  0  0  0  0  0  0  0  0  0  0
    2.4178    4.1055    0.0000 C   0  0  0  0  0  0  0  0  0  0  0  0
    3.0731    3.6043    0.0000 C   0  0  0  0  0  0  0  0  0  0  0  0
    2.9667    2.7862    0.0000 C   0  0  0  0  0  0  0  0  0  0  0  0
  1  2  1  0  0  0  0
  2  3  1  0  0  0  0
  3  4  1  0  0  0  0
  3  6  1  0  0  0  0
  3 36  1  0  0  0  0
  4  5  1  0  0  0  0
  4 18  1  0  0  0  0
  5  6  1  0  0  0  0
  5 29  1  0  0  0  0
  6  7  1  0  0  0  0
  7  8  1  0  0  0  0
  7 15  1  0  0  0  0
  8  9  1  0  0  0  0
  9 10  2  0  0  0  0
  9 14  1  0  0  0  0
 10 11  1  0  0  0  0
 11 12  2  0  0  0  0
 12 13  1  0  0  0  0
 13 14  2  0  0  0  0
 15 16  1  0  0  0  0
 15 26  1  0  0  0  0
 16 17  1  0  0  0  0
 16 36  1  0  0  0  0
 17 18  1  0  0  0  0
 17 26  1  0  0  0  0
 18 19  1  0  0  0  0
 19 20  1  0  0  0  0
 20 21  2  0  0  0  0
 20 25  1  0  0  0  0
 21 22  1  0  0  0  0
 22 23  2  0  0  0  0
 23 24  1  0  0  0  0
 24 25  2  0  0  0  0
 26 27  1  0  0  0  0
 26 29  1  0  0  0  0
 27 28  1  0  0  0  0
 29 30  1  0  0  0  0
 30 31  2  0  0  0  0
 30 35  1  0  0  0  0
 31 32  1  0  0  0  0
 32 33  2  0  0  0  0
 33 34  1  0  0  0  0
 34 35  2  0  0  0  0
 36 37  1  0  0  0  0
 37 38  2  0  0  0  0
 37 42  1  0  0  0  0
 38 39  1  0  0  0  0
 39 40  2  0  0  0  0
 40 41  1  0  0  0  0
 41 42  2  0  0  0  0
M  END
$$$$

 OpenBabel12191814062D

 34 38  0  0  0  0  0  0  0  0999 V2000
   -4.2868    0.8250    0.0000 O   0  0  0  0  0  0  0  0  0  0  0  0
   -3.5724    1.2375    0.0000 C   0  0  0  0  0  0  0  0  0  0  0  0
   -2.8579    0.8250    0.0000 C   0  0  3  0  0  0  0  0  0  0  0  0
   -2.1434    1.2375    0.0000 O   0  0  0  0  0  0  0  0  0  0  0  0
   -1.4289    0.8250    0.0000 C   0  0  0  0  0  0  0  0  0  0  0  0
   -0.7145    1.2375    0.0000 C   0  0  0  0  0  0  0  0  0  0  0  0
    0.0000    0.8250    0.0000 C   0  0  0  0  0  0  0  0  0  0  0  0
    0.0000    0.0000    0.0000 C   0  0  0  0  0  0  0  0  0  0  0  0
   -0.7145   -0.4125    0.0000 C   0  0  0  0  0  0  0  0  0  0  0  0
   -1.4289   -0.0000    0.0000 C   0  0  0  0  0  0  0  0  0  0  0  0
   -2.1434   -0.4125    0.0000 O   0  0  0  0  0  0  0  0  0  0  0  0
   -2.8579   -0.0000    0.0000 C   0  0  3  0  0  0  0  0  0  0  0  0
   -3.5724   -0.4125    0.0000 C   0  0  0  0  0  0  0  0  0  0  0  0
   -3.5724   -1.2375    0.0000 C   0  0  0  0  0  0  0  0  0  0  0  0
   -4.2868   -1.6500    0.0000 C   0  0  0  0  0  0  0  0  0  0  0  0
   -5.0013   -1.2375    0.0000 C   0  0  0  0  0  0  0  0  0  0  0  0
   -5.7158   -1.6500    0.0000 O   0  0  0  0  0  0  0  0  0  0  0  0
   -5.0013   -0.4125    0.0000 C   0  0  0  0  0  0  0  0  0  0  0  0
   -5.7158   -0.0000    0.0000 O   0  0  0  0  0  0  0  0  0  0  0  0
   -4.2868   -0.0000    0.0000 C   0  0  0  0  0  0  0  0  0  0  0  0
    0.7145   -0.4125    0.0000 C   0  0  0  0  0  0  0  0  0  0  0  0
    1.4289    0.0000    0.0000 O   0  0  0  0  0  0  0  0  0  0  0  0
    2.1434   -0.4125    0.0000 C   0  0  0  0  0  0  0  0  0  0  0  0
    2.8579    0.0000    0.0000 C   0  0  0  0  0  0  0  0  0  0  0  0
    3.5724   -0.4125    0.0000 C   0  0  0  0  0  0  0  0  0  0  0  0
    4.2868   -0.0000    0.0000 O   0  0  0  0  0  0  0  0  0  0  0  0
    3.5724   -1.2375    0.0000 C   0  0  0  0  0  0  0  0  0  0  0  0
    2.8579   -1.6500    0.0000 C   0  0  0  0  0  0  0  0  0  0  0  0
    2.8579   -2.4750    0.0000 O   0  0  0  0  0  0  0  0  0  0  0  0
    2.1434   -1.2375    0.0000 C   0  0  0  0  0  0  0  0  0  0  0  0
    1.4289   -1.6500    0.0000 C   0  0  0  0  0  0  0  0  0  0  0  0
    1.4289   -2.4750    0.0000 O   0  0  0  0  0  0  0  0  0  0  0  0
    0.7145   -1.2375    0.0000 C   0  0  0  0  0  0  0  0  0  0  0  0
    0.0000   -1.6500    0.0000 O   0  0  0  0  0  0  0  0  0  0  0  0
  1  2  1  0  0  0  0
  2  3  1  0  0  0  0
  3  4  1  0  0  0  0
  3 12  1  0  0  0  0
  4  5  1  0  0  0  0
  5  6  2  0  0  0  0
  5 10  1  0  0  0  0
  6  7  1  0  0  0  0
  7  8  2  0  0  0  0
  8  9  1  0  0  0  0
  8 21  1  0  0  0  0
  9 10  2  0  0  0  0
 10 11  1  0  0  0  0
 11 12  1  0  0  0  0
 12 13  1  0  0  0  0
 13 14  2  0  0  0  0
 13 20  1  0  0  0  0
 14 15  1  0  0  0  0
 15 16  2  0  0  0  0
 16 17  1  0  0  0  0
 16 18  1  0  0  0  0
 18 19  1  0  0  0  0
 18 20  2  0  0  0  0
 21 22  1  0  0  0  0
 21 33  2  0  0  0  0
 22 23  1  0  0  0  0
 23 24  2  0  0  0  0
 23 30  1  0  0  0  0
 24 25  1  0  0  0  0
 25 26  1  0  0  0  0
 25 27  2  0  0  0  0
 27 28  1  0  0  0  0
 28 29  1  0  0  0  0
 28 30  2  0  0  0  0
 30 31  1  0  0  0  0
 31 32  2  0  0  0  0
 31 33  1  0  0  0  0
 33 34  1  0  0  0  0
M  END
$$$$

 OpenBabel12191814062D

 39 44  0  0  0  0  0  0  0  0999 V2000
    3.5724   -2.8875    0.0000 O   0  0  0  0  0  0  0  0  0  0  0  0
    2.8579   -2.4750    0.0000 C   0  0  0  0  0  0  0  0  0  0  0  0
    2.1434   -2.8875    0.0000 C   0  0  0  0  0  0  0  0  0  0  0  0
    1.4289   -2.4750    0.0000 N   0  0  0  0  0  0  0  0  0  0  0  0
    0.7145   -2.8875    0.0000 C   0  0  0  0  0  0  0  0  0  0  0  0
    0.7145   -3.7125    0.0000 C   0  0  0  0  0  0  0  0  0  0  0  0
    1.4289   -4.1250    0.0000 C   0  0  0  0  0  0  0  0  0  0  0  0
    1.4289   -4.9500    0.0000 C   0  0  0  0  0  0  0  0  0  0  0  0
    0.7145   -5.3625    0.0000 C   0  0  0  0  0  0  0  0  0  0  0  0
    0.0000   -4.9500    0.0000 C   0  0  0  0  0  0  0  0  0  0  0  0
    0.0000   -4.1250    0.0000 C   0  0  0  0  0  0  0  0  0  0  0  0
    1.4289   -1.6500    0.0000 C   0  0  0  0  0  0  0  0  0  0  0  0
    0.7145   -1.2375    0.0000 N   0  0  0  0  0  0  0  0  0  0  0  0
    0.7145   -0.4125    0.0000 C   0  0  0  0  0  0  0  0  0  0  0  0
    1.4289    0.0000    0.0000 N   0  0  0  0  0  0  0  0  0  0  0  0
    2.1434   -0.4125    0.0000 C   0  0  0  0  0  0  0  0  0  0  0  0
    2.8579    0.0000    0.0000 N   0  0  0  0  0  0  0  0  0  0  0  0
    3.5724   -0.4125    0.0000 C   0  0  0  0  0  0  0  0  0  0  0  0
    4.2868   -0.0000    0.0000 N   0  0  0  0  0  0  0  0  0  0  0  0
    4.2868    0.8250    0.0000 C   0  0  0  0  0  0  0  0  0  0  0  0
    5.0013    1.2375    0.0000 C   0  0  0  0  0  0  0  0  0  0  0  0
    5.7158    0.8250    0.0000 O   0  0  0  0  0  0  0  0  0  0  0  0
    5.7158   -0.0000    0.0000 C   0  0  0  0  0  0  0  0  0  0  0  0
    5.0013   -0.4125    0.0000 C   0  0  0  0  0  0  0  0  0  0  0  0
    3.5724   -1.2375    0.0000 C   0  0  0  0  0  0  0  0  0  0  0  0
    2.8579   -1.6500    0.0000 N   0  0  0  0  0  0  0  0  0  0  0  0
    2.1434   -1.2375    0.0000 C   0  0  0  0  0  0  0  0  0  0  0  0
    4.2868   -1.6500    0.0000 C   0  0  0  0  0  0  0  0  0  0  0  0
    5.0013   -1.2375    0.0000 C   0  0  0  0  0  0  0  0  0  0  0  0
    5.7158   -1.6500    0.0000 C   0  0  0  0  0  0  0  0  0  0  0  0
    5.7158   -2.4750    0.0000 C   0  0  0  0  0  0  0  0  0  0  0  0
    5.0013   -2.8875    0.0000 C   0  0  0  0  0  0  0  0  0  0  0  0
    4.2868   -2.4750    0.0000 C   0  0  0  0  0  0  0  0  0  0  0  0
    0.0000    0.0000    0.0000 N   0  0  0  0  0  0  0  0  0  0  0  0
   -0.7145   -0.4125    0.0000 C   0  0  0  0  0  0  0  0  0  0  0  0
   -1.4289    0.0000    0.0000 C   0  0  0  0  0  0  0  0  0  0  0  0
   -1.4289    0.8250    0.0000 O   0  0  0  0  0  0  0  0  0  0  0  0
   -0.7145    1.2375    0.0000 C   0  0  0  0  0  0  0  0  0  0  0  0
    0.0000    0.8250    0.0000 C   0  0  0  0  0  0  0  0  0  0  0  0
  1  2  1  0  0  0  0
  2  3  1  0  0  0  0
  3  4  1  0  0  0  0
  4  5  1  0  0  0  0
  4 12  1  0  0  0  0
  5  6  1  0  0  0  0
  6  7  2  0  0  0  0
  6 11  1  0  0  0  0
  7  8  1  0  0  0  0
  8  9  2  0  0  0  0
  9 10  1  0  0  0  0
 10 11  2  0  0  0  0
 12 13  2  0  0  0  0
 12 27  1  0  0  0  0
 13 14  1  0  0  0  0
 14 15  2  0  0  0  0
 14 34  1  0  0  0  0
 15 16  1  0  0  0  0
 16 17  2  0  0  0  0
 16 27  1  0  0  0  0
 17 18  1  0  0  0  0
 18 19  1  0  0  0  0
 18 25  2  0  0  0  0
 19 20  1  0  0  0  0
 19 24  1  0  0  0  0
 20 21  1  0  0  0  0
 21 22  1  0  0  0  0
 22 23  1  0  0  0  0
 23 24  1  0  0  0  0
 25 26  1  0  0  0  0
 25 28  1  0  0  0  0
 26 27  2  0  0  0  0
 28 29  2  0  0  0  0
 28 33  1  0  0  0  0
 29 30  1  0  0  0  0
 30 31  2  0  0  0  0
 31 32  1  0  0  0  0
 32 33  2  0  0  0  0
 34 35  1  0  0  0  0
 34 39  1  0  0  0  0
 35 36  1  0  0  0  0
 36 37  1  0  0  0  0
 37 38  1  0  0  0  0
 38 39  1  0  0  0  0
M  END
$$$$

 OpenBabel12191814062D

 34 37  0  0  0  0  0  0  0  0999 V2000
   -0.7145   -6.1875    0.0000 O   0  0  0  0  0  0  0  0  0  0  0  0
   -1.4289   -5.7750    0.0000 C   0  0  0  0  0  0  0  0  0  0  0  0
   -1.4289   -4.9500    0.0000 C   0  0  0  0  0  0  0  0  0  0  0  0
   -2.1434   -4.5375    0.0000 N   0  0  0  0  0  0  0  0  0  0  0  0
   -2.8579   -4.9500    0.0000 C   0  0  0  0  0  0  0  0  0  0  0  0
   -2.8579   -5.7750    0.0000 C   0  0  0  0  0  0  0  0  0  0  0  0
   -3.5724   -6.1875    0.0000 O   0  0  0  0  0  0  0  0  0  0  0  0
   -2.1434   -3.7125    0.0000 C   0  0  0  0  0  0  0  0  0  0  0  0
   -2.8579   -3.3000    0.0000 N   0  0  0  0  0  0  0  0  0  0  0  0
   -2.8579   -2.4750    0.0000 C   0  0  0  0  0  0  0  0  0  0  0  0
   -3.5724   -2.0625    0.0000 N   0  0  0  0  0  0  0  0  0  0  0  0
   -4.3260   -2.3981    0.0000 C   0  0  0  0  0  0  0  0  0  0  0  0
   -4.8781   -1.7850    0.0000 C   0  0  0  0  0  0  0  0  0  0  0  0
   -4.4656   -1.0705    0.0000 C   0  0  0  0  0  0  0  0  0  0  0  0
   -3.6586   -1.2420    0.0000 C   0  0  0  0  0  0  0  0  0  0  0  0
   -2.1434   -2.0625    0.0000 C   0  0  0  0  0  0  0  0  0  0  0  0
   -2.1434   -1.2375    0.0000 N   0  0  0  0  0  0  0  0  0  0  0  0
   -1.4289   -0.8250    0.0000 C   0  0  0  0  0  0  0  0  0  0  0  0
   -0.7145   -1.2375    0.0000 N   0  0  0  0  0  0  0  0  0  0  0  0
   -0.7145   -2.0625    0.0000 C   0  0  0  0  0  0  0  0  0  0  0  0
    0.0000   -2.4750    0.0000 N   0  0  0  0  0  0  0  0  0  0  0  0
    0.7537   -2.1394    0.0000 C   0  0  0  0  0  0  0  0  0  0  0  0
    1.3057   -2.7525    0.0000 C   0  0  0  0  0  0  0  0  0  0  0  0
    0.8932   -3.4670    0.0000 C   0  0  0  0  0  0  0  0  0  0  0  0
    0.0862   -3.2955    0.0000 C   0  0  0  0  0  0  0  0  0  0  0  0
   -1.4289   -2.4750    0.0000 C   0  0  0  0  0  0  0  0  0  0  0  0
   -1.4289   -3.3000    0.0000 N   0  0  0  0  0  0  0  0  0  0  0  0
   -1.4289    0.0000    0.0000 N   0  0  0  0  0  0  0  0  0  0  0  0
   -2.1434    0.4125    0.0000 C   0  0  0  0  0  0  0  0  0  0  0  0
   -2.1434    1.2375    0.0000 C   0  0  0  0  0  0  0  0  0  0  0  0
   -2.8579    1.6500    0.0000 O   0  0  0  0  0  0  0  0  0  0  0  0
   -0.7145    0.4125    0.0000 C   0  0  0  0  0  0  0  0  0  0  0  0
   -0.7145    1.2375    0.0000 C   0  0  0  0  0  0  0  0  0  0  0  0
    0.0000    1.6500    0.0000 O   0  0  0  0  0  0  0  0  0  0  0  0
  1  2  1  0  0  0  0
  2  3  1  0  0  0  0
  3  4  1  0  0  0  0
  4  5  1  0  0  0  0
  4  8  1  0  0  0  0
  5  6  1  0  0  0  0
  6  7  1  0  0  0  0
  8  9  2  0  0  0  0
  8 27  1  0  0  0  0
  9 10  1  0  0  0  0
 10 11  1  0  0  0  0
 10 16  2  0  0  0  0
 11 12  1  0  0  0  0
 11 15  1  0  0  0  0
 12 13  1  0  0  0  0
 13 14  1  0  0  0  0
 14 15  1  0  0  0  0
 16 17  1  0  0  0  0
 16 26  1  0  0  0  0
 17 18  2  0  0  0  0
 18 19  1  0  0  0  0
 18 28  1  0  0  0  0
 19 20  2  0  0  0  0
 20 21  1  0  0  0  0
 20 26  1  0  0  0  0
 21 22  1  0  0  0  0
 21 25  1  0  0  0  0
 22 23  1  0  0  0  0
 23 24  1  0  0  0  0
 24 25  1  0  0  0  0
 26 27  2  0  0  0  0
 28 29  1  0  0  0  0
 28 32  1  0  0  0  0
 29 30  1  0  0  0  0
 30 31  1  0  0  0  0
 32 33  1  0  0  0  0
 33 34  1  0  0  0  0
M  END
$$$$

 OpenBabel12191814062D

 44 49  0  0  0  0  0  0  0  0999 V2000
    0.7145   -1.2375    0.0000 O   0  0  0  0  0  0  0  0  0  0  0  0
    0.7145   -0.4125    0.0000 C   0  0  0  0  0  0  0  0  0  0  0  0
    1.4289    0.0000    0.0000 C   0  0  0  0  0  0  0  0  0  0  0  0
    1.4289    0.8250    0.0000 N   0  0  0  0  0  0  0  0  0  0  0  0
    0.7145    1.2375    0.0000 C   0  0  0  0  0  0  0  0  0  0  0  0
   -0.0000    0.8250    0.0000 C   0  0  0  0  0  0  0  0  0  0  0  0
   -0.7145    1.2375    0.0000 O   0  0  0  0  0  0  0  0  0  0  0  0
    2.1434    1.2375    0.0000 C   0  0  0  0  0  0  0  0  0  0  0  0
    2.1434    2.0625    0.0000 N   0  0  0  0  0  0  0  0  0  0  0  0
    2.8579    2.4750    0.0000 C   0  0  0  0  0  0  0  0  0  0  0  0
    2.8579    3.3000    0.0000 N   0  0  0  0  0  0  0  0  0  0  0  0
    2.1434    3.7125    0.0000 C   0  0  0  0  0  0  0  0  0  0  0  0
    2.1434    4.5375    0.0000 C   0  0  0  0  0  0  0  0  0  0  0  0
    2.8579    4.9500    0.0000 C   0  0  0  0  0  0  0  0  0  0  0  0
    3.5724    4.5375    0.0000 C   0  0  0  0  0  0  0  0  0  0  0  0
    4.2868    4.9500    0.0000 C   0  0  0  0  0  0  0  0  0  0  0  0
    5.0013    4.5375    0.0000 C   0  0  0  0  0  0  0  0  0  0  0  0
    5.0013    3.7125    0.0000 C   0  0  0  0  0  0  0  0  0  0  0  0
    4.2868    3.3000    0.0000 C   0  0  0  0  0  0  0  0  0  0  0  0
    3.5724    3.7125    0.0000 C   0  0  0  0  0  0  0  0  0  0  0  0
    3.5724    2.0625    0.0000 C   0  0  0  0  0  0  0  0  0  0  0  0
    4.2868    2.4750    0.0000 N   0  0  0  0  0  0  0  0  0  0  0  0
    5.0013    2.0625    0.0000 C   0  0  0  0  0  0  0  0  0  0  0  0
    5.0013    1.2375    0.0000 N   0  0  0  0  0  0  0  0  0  0  0  0
    4.2868    0.8250    0.0000 C   0  0  0  0  0  0  0  0  0  0  0  0
    4.2868    0.0000    0.0000 N   0  0  0  0  0  0  0  0  0  0  0  0
    5.0013   -0.4125    0.0000 C   0  0  0  0  0  0  0  0  0  0  0  0
    5.0013   -1.2375    0.0000 C   0  0  0  0  0  0  0  0  0  0  0  0
    4.2868   -1.6500    0.0000 C   0  0  0  0  0  0  0  0  0  0  0  0
    3.5724   -1.2375    0.0000 C   0  0  0  0  0  0  0  0  0  0  0  0
    2.8579   -1.6500    0.0000 C   0  0  0  0  0  0  0  0  0  0  0  0
    2.1434   -1.2375    0.0000 C   0  0  0  0  0  0  0  0  0  0  0  0
    2.1434   -0.4125    0.0000 C   0  0  0  0  0  0  0  0  0  0  0  0
    2.8579    0.0000    0.0000 C   0  0  0  0  0  0  0  0  0  0  0  0
    3.5724   -0.4125    0.0000 C   0  0  0  0  0  0  0  0  0  0  0  0
    3.5724    1.2375    0.0000 C   0  0  0  0  0  0  0  0  0  0  0  0
    2.8579    0.8250    0.0000 N   0  0  0  0  0  0  0  0  0  0  0  0
    5.7158    2.4750    0.0000 N   0  0  0  0  0  0  0  0  0  0  0  0
    5.7158    3.3000    0.0000 C   0  0  0  0  0  0  0  0  0  0  0  0
    6.4302    3.7125    0.0000 C   0  0  0  0  0  0  0  0  0  0  0  0
    6.4302    4.5375    0.0000 O   0  0  0  0  0  0  0  0  0  0  0  0
    6.4302    2.0625    0.0000 C   0  0  0  0  0  0  0  0  0  0  0  0
    7.1447    2.4750    0.0000 C   0  0  0  0  0  0  0  0  0  0  0  0
    7.8592    2.0625    0.0000 O   0  0  0  0  0  0  0  0  0  0  0  0
  1  2  1  0  0  0  0
  2  3  1  0  0  0  0
  3  4  1  0  0  0  0
  4  5  1  0  0  0  0
  4  8  1  0  0  0  0
  5  6  1  0  0  0  0
  6  7  1  0  0  0  0
  8  9  2  0  0  0  0
  8 37  1  0  0  0  0
  9 10  1  0  0  0  0
 10 11  1  0  0  0  0
 10 21  2  0  0  0  0
 11 12  1  0  0  0  0
 11 20  1  0  0  0  0
 12 13  1  0  0  0  0
 13 14  1  0  0  0  0
 14 15  1  0  0  0  0
 15 16  2  0  0  0  0
 15 20  1  0  0  0  0
 16 17  1  0  0  0  0
 17 18  2  0  0  0  0
 18 19  1  0  0  0  0
 19 20  2  0  0  0  0
 21 22  1  0  0  0  0
 21 36  1  0  0  0  0
 22 23  2  0  0  0  0
 23 24  1  0  0  0  0
 23 38  1  0  0  0  0
 24 25  2  0  0  0  0
 25 26  1  0  0  0  0
 25 36  1  0  0  0  0
 26 27  1  0  0  0  0
 26 35  1  0  0  0  0
 27 28  1  0  0  0  0
 28 29  1  0  0  0  0
 29 30  1  0  0  0  0
 30 31  2  0  0  0  0
 30 35  1  0  0  0  0
 31 32  1  0  0  0  0
 32 33  2  0  0  0  0
 33 34  1  0  0  0  0
 34 35  2  0  0  0  0
 36 37  2  0  0  0  0
 38 39  1  0  0  0  0
 38 42  1  0  0  0  0
 39 40  1  0  0  0  0
 40 41  1  0  0  0  0
 42 43  1  0  0  0  0
 43 44  1  0  0  0  0
M  END
$$$$

 OpenBabel12191814062D

 36 39  0  0  0  0  0  0  0  0999 V2000
   -0.7145   -6.1875    0.0000 O   0  0  0  0  0  0  0  0  0  0  0  0
   -1.4289   -5.7750    0.0000 C   0  0  0  0  0  0  0  0  0  0  0  0
   -1.4289   -4.9500    0.0000 C   0  0  0  0  0  0  0  0  0  0  0  0
   -2.1434   -4.5375    0.0000 N   0  0  0  0  0  0  0  0  0  0  0  0
   -2.8579   -4.9500    0.0000 C   0  0  0  0  0  0  0  0  0  0  0  0
   -2.8579   -5.7750    0.0000 C   0  0  0  0  0  0  0  0  0  0  0  0
   -3.5724   -6.1875    0.0000 O   0  0  0  0  0  0  0  0  0  0  0  0
   -2.1434   -3.7125    0.0000 C   0  0  0  0  0  0  0  0  0  0  0  0
   -2.8579   -3.3000    0.0000 N   0  0  0  0  0  0  0  0  0  0  0  0
   -2.8579   -2.4750    0.0000 C   0  0  0  0  0  0  0  0  0  0  0  0
   -3.5724   -2.0625    0.0000 N   0  0  0  0  0  0  0  0  0  0  0  0
   -4.2868   -2.4750    0.0000 C   0  0  0  0  0  0  0  0  0  0  0  0
   -5.0013   -2.0625    0.0000 C   0  0  0  0  0  0  0  0  0  0  0  0
   -5.0013   -1.2375    0.0000 C   0  0  0  0  0  0  0  0  0  0  0  0
   -4.2868   -0.8250    0.0000 C   0  0  0  0  0  0  0  0  0  0  0  0
   -3.5724   -1.2375    0.0000 C   0  0  0  0  0  0  0  0  0  0  0  0
   -2.1434   -2.0625    0.0000 C   0  0  0  0  0  0  0  0  0  0  0  0
   -2.1434   -1.2375    0.0000 N   0  0  0  0  0  0  0  0  0  0  0  0
   -1.4289   -0.8250    0.0000 C   0  0  0  0  0  0  0  0  0  0  0  0
   -0.7145   -1.2375    0.0000 N   0  0  0  0  0  0  0  0  0  0  0  0
   -0.7145   -2.0625    0.0000 C   0  0  0  0  0  0  0  0  0  0  0  0
    0.0000   -2.4750    0.0000 N   0  0  0  0  0  0  0  0  0  0  0  0
    0.7145   -2.0625    0.0000 C   0  0  0  0  0  0  0  0  0  0  0  0
    1.4289   -2.4750    0.0000 C   0  0  0  0  0  0  0  0  0  0  0  0
    1.4289   -3.3000    0.0000 C   0  0  0  0  0  0  0  0  0  0  0  0
    0.7145   -3.7125    0.0000 C   0  0  0  0  0  0  0  0  0  0  0  0
    0.0000   -3.3000    0.0000 C   0  0  0  0  0  0  0  0  0  0  0  0
   -1.4289   -2.4750    0.0000 C   0  0  0  0  0  0  0  0  0  0  0  0
   -1.4289   -3.3000    0.0000 N   0  0  0  0  0  0  0  0  0  0  0  0
   -1.4289    0.0000    0.0000 N   0  0  0  0  0  0  0  0  0  0  0  0
   -2.1434    0.4125    0.0000 C   0  0  0  0  0  0  0  0  0  0  0  0
   -2.1434    1.2375    0.0000 C   0  0  0  0  0  0  0  0  0  0  0  0
   -2.8579    1.6500    0.0000 O   0  0  0  0  0  0  0  0  0  0  0  0
   -0.7145    0.4125    0.0000 C   0  0  0  0  0  0  0  0  0  0  0  0
   -0.7145    1.2375    0.0000 C   0  0  0  0  0  0  0  0  0  0  0  0
    0.0000    1.6500    0.0000 O   0  0  0  0  0  0  0  0  0  0  0  0
  1  2  1  0  0  0  0
  2  3  1  0  0  0  0
  3  4  1  0  0  0  0
  4  5  1  0  0  0  0
  4  8  1  0  0  0  0
  5  6  1  0  0  0  0
  6  7  1  0  0  0  0
  8  9  2  0  0  0  0
  8 29  1  0  0  0  0
  9 10  1  0  0  0  0
 10 11  1  0  0  0  0
 10 17  2  0  0  0  0
 11 12  1  0  0  0  0
 11 16  1  0  0  0  0
 12 13  1  0  0  0  0
 13 14  1  0  0  0  0
 14 15  1  0  0  0  0
 15 16  1  0  0  0  0
 17 18  1  0  0  0  0
 17 28  1  0  0  0  0
 18 19  2  0  0  0  0
 19 20  1  0  0  0  0
 19 30  1  0  0  0  0
 20 21  2  0  0  0  0
 21 22  1  0  0  0  0
 21 28  1  0  0  0  0
 22 23  1  0  0  0  0
 22 27  1  0  0  0  0
 23 24  1  0  0  0  0
 24 25  1  0  0  0  0
 25 26  1  0  0  0  0
 26 27  1  0  0  0  0
 28 29  2  0  0  0  0
 30 31  1  0  0  0  0
 30 34  1  0  0  0  0
 31 32  1  0  0  0  0
 32 33  1  0  0  0  0
 34 35  1  0  0  0  0
 35 36  1  0  0  0  0
M  END
$$$$

 OpenBabel12191814062D

 35 39  0  0  0  0  0  0  0  0999 V2000
   -0.7145   -3.7125    0.0000 O   0  0  0  0  0  0  0  0  0  0  0  0
   -0.7145   -2.8875    0.0000 C   0  0  0  0  0  0  0  0  0  0  0  0
    0.0000   -2.4750    0.0000 C   0  0  0  0  0  0  0  0  0  0  0  0
    0.0000   -1.6500    0.0000 N   0  0  0  0  0  0  0  0  0  0  0  0
   -0.7145   -1.2375    0.0000 C   0  0  0  0  0  0  0  0  0  0  0  0
   -1.4289   -1.6500    0.0000 C   0  0  0  0  0  0  0  0  0  0  0  0
   -2.1434   -1.2375    0.0000 O   0  0  0  0  0  0  0  0  0  0  0  0
    0.7145   -1.2375    0.0000 C   0  0  0  0  0  0  0  0  0  0  0  0
    0.7145   -0.4125    0.0000 N   0  0  0  0  0  0  0  0  0  0  0  0
    1.4289    0.0000    0.0000 C   0  0  0  0  0  0  0  0  0  0  0  0
    1.4289    0.8250    0.0000 N   0  0  0  0  0  0  0  0  0  0  0  0
    0.7145    1.2375    0.0000 C   0  0  0  0  0  0  0  0  0  0  0  0
    0.7145    2.0625    0.0000 C   0  0  0  0  0  0  0  0  0  0  0  0
    1.4289    2.4750    0.0000 C   0  0  0  0  0  0  0  0  0  0  0  0
    2.1434    2.0625    0.0000 C   0  0  0  0  0  0  0  0  0  0  0  0
    2.1434    1.2375    0.0000 C   0  0  0  0  0  0  0  0  0  0  0  0
    2.1434   -0.4125    0.0000 C   0  0  0  0  0  0  0  0  0  0  0  0
    2.8579    0.0000    0.0000 N   0  0  0  0  0  0  0  0  0  0  0  0
    3.5724   -0.4125    0.0000 C   0  0  0  0  0  0  0  0  0  0  0  0
    3.5724   -1.2375    0.0000 N   0  0  0  0  0  0  0  0  0  0  0  0
    2.8579   -1.6500    0.0000 C   0  0  0  0  0  0  0  0  0  0  0  0
    2.8579   -2.4750    0.0000 N   0  0  0  0  0  0  0  0  0  0  0  0
    3.5724   -2.8875    0.0000 C   0  0  0  0  0  0  0  0  0  0  0  0
    3.5724   -3.7125    0.0000 C   0  0  0  0  0  0  0  0  0  0  0  0
    2.8579   -4.1250    0.0000 C   0  0  0  0  0  0  0  0  0  0  0  0
    2.1434   -3.7125    0.0000 C   0  0  0  0  0  0  0  0  0  0  0  0
    2.1434   -2.8875    0.0000 C   0  0  0  0  0  0  0  0  0  0  0  0
    2.1434   -1.2375    0.0000 C   0  0  0  0  0  0  0  0  0  0  0  0
    1.4289   -1.6500    0.0000 N   0  0  0  0  0  0  0  0  0  0  0  0
    4.2868   -0.0000    0.0000 N   0  0  0  0  0  0  0  0  0  0  0  0
    4.2868    0.8250    0.0000 C   0  0  0  0  0  0  0  0  0  0  0  0
    5.0013    1.2375    0.0000 C   0  0  0  0  0  0  0  0  0  0  0  0
    5.7158    0.8250    0.0000 C   0  0  0  0  0  0  0  0  0  0  0  0
    5.7158   -0.0000    0.0000 C   0  0  0  0  0  0  0  0  0  0  0  0
    5.0013   -0.4125    0.0000 C   0  0  0  0  0  0  0  0  0  0  0  0
  1  2  1  0  0  0  0
  2  3  1  0  0  0  0
  3  4  1  0  0  0  0
  4  5  1  0  0  0  0
  4  8  1  0  0  0  0
  5  6  1  0  0  0  0
  6  7  1  0  0  0  0
  8  9  2  0  0  0  0
  8 29  1  0  0  0  0
  9 10  1  0  0  0  0
 10 11  1  0  0  0  0
 10 17  2  0  0  0  0
 11 12  1  0  0  0  0
 11 16  1  0  0  0  0
 12 13  1  0  0  0  0
 13 14  1  0  0  0  0
 14 15  1  0  0  0  0
 15 16  1  0  0  0  0
 17 18  1  0  0  0  0
 17 28  1  0  0  0  0
 18 19  2  0  0  0  0
 19 20  1  0  0  0  0
 19 30  1  0  0  0  0
 20 21  2  0  0  0  0
 21 22  1  0  0  0  0
 21 28  1  0  0  0  0
 22 23  1  0  0  0  0
 22 27  1  0  0  0  0
 23 24  1  0  0  0  0
 24 25  1  0  0  0  0
 25 26  1  0  0  0  0
 26 27  1  0  0  0  0
 28 29  2  0  0  0  0
 30 31  1  0  0  0  0
 30 35  1  0  0  0  0
 31 32  1  0  0  0  0
 32 33  1  0  0  0  0
 33 34  1  0  0  0  0
 34 35  1  0  0  0  0
M  END
$$$$

 OpenBabel12191814062D

 29 32  0  0  0  0  0  0  0  0999 V2000
    2.7474   -2.8875    0.0000 O   0  0  0  0  0  0  0  0  0  0  0  0
    3.5724   -2.8875    0.0000 C   0  0  0  0  0  0  0  0  0  0  0  0
    3.9849   -2.1730    0.0000 C   0  0  0  0  0  0  0  0  0  0  0  0
    4.8099   -2.1730    0.0000 N   0  0  0  0  0  0  0  0  0  0  0  0
    5.2224   -2.8875    0.0000 C   0  0  0  0  0  0  0  0  0  0  0  0
    6.0474   -2.8875    0.0000 C   0  0  0  0  0  0  0  0  0  0  0  0
    6.4599   -3.6020    0.0000 O   0  0  0  0  0  0  0  0  0  0  0  0
    5.2224   -1.4586    0.0000 C   0  0  0  0  0  0  0  0  0  0  0  0
    4.8099   -0.7441    0.0000 N   0  0  0  0  0  0  0  0  0  0  0  0
    5.2224   -0.0296    0.0000 C   0  0  0  0  0  0  0  0  0  0  0  0
    4.8099    0.6849    0.0000 N   0  0  0  0  0  0  0  0  0  0  0  0
    3.9849    0.6849    0.0000 C   0  0  0  0  0  0  0  0  0  0  0  0
    3.5724    1.3993    0.0000 C   0  0  0  0  0  0  0  0  0  0  0  0
    3.9849    2.1138    0.0000 C   0  0  0  0  0  0  0  0  0  0  0  0
    4.8099    2.1138    0.0000 C   0  0  0  0  0  0  0  0  0  0  0  0
    5.2224    1.3993    0.0000 C   0  0  0  0  0  0  0  0  0  0  0  0
    6.0474   -0.0296    0.0000 C   0  0  0  0  0  0  0  0  0  0  0  0
    6.4599    0.6849    0.0000 N   0  0  0  0  0  0  0  0  0  0  0  0
    7.2849    0.6849    0.0000 C   0  0  0  0  0  0  0  0  0  0  0  0
    7.6974   -0.0296    0.0000 N   0  0  0  0  0  0  0  0  0  0  0  0
    7.2849   -0.7441    0.0000 C   0  0  0  0  0  0  0  0  0  0  0  0
    7.6974   -1.4586    0.0000 N   0  0  0  0  0  0  0  0  0  0  0  0
    8.5224   -1.4586    0.0000 C   0  0  0  0  0  0  0  0  0  0  0  0
    8.9349   -2.1730    0.0000 C   0  0  0  0  0  0  0  0  0  0  0  0
    8.5224   -2.8875    0.0000 C   0  0  0  0  0  0  0  0  0  0  0  0
    7.6974   -2.8875    0.0000 C   0  0  0  0  0  0  0  0  0  0  0  0
    7.2849   -2.1730    0.0000 C   0  0  0  0  0  0  0  0  0  0  0  0
    6.4599   -0.7441    0.0000 C   0  0  0  0  0  0  0  0  0  0  0  0
    6.0474   -1.4586    0.0000 N   0  0  0  0  0  0  0  0  0  0  0  0
  1  2  1  0  0  0  0
  2  3  1  0  0  0  0
  3  4  1  0  0  0  0
  4  5  1  0  0  0  0
  4  8  1  0  0  0  0
  5  6  1  0  0  0  0
  6  7  1  0  0  0  0
  8  9  2  0  0  0  0
  8 29  1  0  0  0  0
  9 10  1  0  0  0  0
 10 11  1  0  0  0  0
 10 17  2  0  0  0  0
 11 12  1  0  0  0  0
 11 16  1  0  0  0  0
 12 13  1  0  0  0  0
 13 14  1  0  0  0  0
 14 15  1  0  0  0  0
 15 16  1  0  0  0  0
 17 18  1  0  0  0  0
 17 28  1  0  0  0  0
 18 19  2  0  0  0  0
 19 20  1  0  0  0  0
 20 21  2  0  0  0  0
 21 22  1  0  0  0  0
 21 28  1  0  0  0  0
 22 23  1  0  0  0  0
 22 27  1  0  0  0  0
 23 24  1  0  0  0  0
 24 25  1  0  0  0  0
 25 26  1  0  0  0  0
 26 27  1  0  0  0  0
 28 29  2  0  0  0  0
M  END
$$$$

 OpenBabel12191814062D

 36 39  0  0  0  0  0  0  0  0999 V2000
    3.5724    4.5375    0.0000 O   0  0  0  0  0  0  0  0  0  0  0  0
    2.8579    4.1250    0.0000 C   0  0  0  0  0  0  0  0  0  0  0  0
    2.1434    4.5375    0.0000 C   0  0  0  0  0  0  0  0  0  0  0  0
    1.4289    4.1250    0.0000 N   0  0  0  0  0  0  0  0  0  0  0  0
    0.7145    4.5375    0.0000 C   0  0  0  0  0  0  0  0  0  0  0  0
   -0.0000    4.1250    0.0000 C   0  0  0  0  0  0  0  0  0  0  0  0
   -0.7145    4.5375    0.0000 O   0  0  0  0  0  0  0  0  0  0  0  0
    1.4289    3.3000    0.0000 C   0  0  0  0  0  0  0  0  0  0  0  0
    2.1434    2.8875    0.0000 N   0  0  0  0  0  0  0  0  0  0  0  0
    2.1434    2.0625    0.0000 C   0  0  0  0  0  0  0  0  0  0  0  0
    1.4289    1.6500    0.0000 N   0  0  0  0  0  0  0  0  0  0  0  0
    0.7145    2.0625    0.0000 C   0  0  0  0  0  0  0  0  0  0  0  0
   -0.0000    1.6500    0.0000 C   0  0  0  0  0  0  0  0  0  0  0  0
   -0.7145    2.0625    0.0000 N   0  0  0  0  0  0  0  0  0  0  0  0
   -0.7145    2.8875    0.0000 C   0  0  0  0  0  0  0  0  0  0  0  0
   -0.0000    3.3000    0.0000 N   0  0  0  0  0  0  0  0  0  0  0  0
    0.7145    2.8875    0.0000 C   0  0  0  0  0  0  0  0  0  0  0  0
   -1.4289    3.3000    0.0000 N   0  0  0  0  0  0  0  0  0  0  0  0
   -2.1434    2.8875    0.0000 C   0  0  0  0  0  0  0  0  0  0  0  0
   -2.8579    3.3000    0.0000 C   0  0  0  0  0  0  0  0  0  0  0  0
   -2.8579    4.1250    0.0000 C   0  0  0  0  0  0  0  0  0  0  0  0
   -2.1434    4.5375    0.0000 C   0  0  0  0  0  0  0  0  0  0  0  0
   -1.4289    4.1250    0.0000 C   0  0  0  0  0  0  0  0  0  0  0  0
   -0.0000    0.8250    0.0000 N   0  0  0  0  0  0  0  0  0  0  0  0
   -0.7145    0.4125    0.0000 C   0  0  0  0  0  0  0  0  0  0  0  0
   -1.4289    0.8250    0.0000 C   0  0  0  0  0  0  0  0  0  0  0  0
   -2.1434    0.4125    0.0000 O   0  0  0  0  0  0  0  0  0  0  0  0
    0.7145    0.4125    0.0000 C   0  0  0  0  0  0  0  0  0  0  0  0
    1.4289    0.8250    0.0000 C   0  0  0  0  0  0  0  0  0  0  0  0
    2.1434    0.4125    0.0000 O   0  0  0  0  0  0  0  0  0  0  0  0
    2.8579    1.6500    0.0000 N   0  0  0  0  0  0  0  0  0  0  0  0
    3.5724    2.0625    0.0000 C   0  0  0  0  0  0  0  0  0  0  0  0
    4.2868    1.6500    0.0000 C   0  0  0  0  0  0  0  0  0  0  0  0
    4.2868    0.8250    0.0000 C   0  0  0  0  0  0  0  0  0  0  0  0
    3.5724    0.4125    0.0000 C   0  0  0  0  0  0  0  0  0  0  0  0
    2.8579    0.8250    0.0000 C   0  0  0  0  0  0  0  0  0  0  0  0
  1  2  1  0  0  0  0
  2  3  1  0  0  0  0
  3  4  1  0  0  0  0
  4  5  1  0  0  0  0
  4  8  1  0  0  0  0
  5  6  1  0  0  0  0
  6  7  1  0  0  0  0
  8  9  2  0  0  0  0
  8 17  1  0  0  0  0
  9 10  1  0  0  0  0
 10 11  2  0  0  0  0
 10 31  1  0  0  0  0
 11 12  1  0  0  0  0
 12 13  2  0  0  0  0
 12 17  1  0  0  0  0
 13 14  1  0  0  0  0
 13 24  1  0  0  0  0
 14 15  2  0  0  0  0
 15 16  1  0  0  0  0
 15 18  1  0  0  0  0
 16 17  2  0  0  0  0
 18 19  1  0  0  0  0
 18 23  1  0  0  0  0
 19 20  1  0  0  0  0
 20 21  1  0  0  0  0
 21 22  1  0  0  0  0
 22 23  1  0  0  0  0
 24 25  1  0  0  0  0
 24 28  1  0  0  0  0
 25 26  1  0  0  0  0
 26 27  1  0  0  0  0
 28 29  1  0  0  0  0
 29 30  1  0  0  0  0
 31 32  1  0  0  0  0
 31 36  1  0  0  0  0
 32 33  1  0  0  0  0
 33 34  1  0  0  0  0
 34 35  1  0  0  0  0
 35 36  1  0  0  0  0
M  END
$$$$

 OpenBabel12191814062D

 35 39  0  0  0  0  0  0  0  0999 V2000
   -0.7145   -2.8875    0.0000 O   0  0  0  0  0  0  0  0  0  0  0  0
    0.0000   -2.4750    0.0000 C   0  0  0  0  0  0  0  0  0  0  0  0
    0.7145   -2.8875    0.0000 C   0  0  0  0  0  0  0  0  0  0  0  0
    1.4289   -2.4750    0.0000 N   0  0  0  0  0  0  0  0  0  0  0  0
    2.1434   -2.8875    0.0000 C   0  0  0  0  0  0  0  0  0  0  0  0
    2.8579   -2.4750    0.0000 C   0  0  0  0  0  0  0  0  0  0  0  0
    3.5724   -2.8875    0.0000 O   0  0  0  0  0  0  0  0  0  0  0  0
    1.4289   -1.6500    0.0000 C   0  0  0  0  0  0  0  0  0  0  0  0
    0.7145   -1.2375    0.0000 N   0  0  0  0  0  0  0  0  0  0  0  0
    0.7145   -0.4125    0.0000 C   0  0  0  0  0  0  0  0  0  0  0  0
    1.4289    0.0000    0.0000 N   0  0  0  0  0  0  0  0  0  0  0  0
    2.1434   -0.4125    0.0000 C   0  0  0  0  0  0  0  0  0  0  0  0
    2.8579    0.0000    0.0000 N   0  0  0  0  0  0  0  0  0  0  0  0
    3.5724   -0.4125    0.0000 C   0  0  0  0  0  0  0  0  0  0  0  0
    4.2868   -0.0000    0.0000 N   0  0  0  0  0  0  0  0  0  0  0  0
    4.2868    0.8250    0.0000 C   0  0  0  0  0  0  0  0  0  0  0  0
    5.0013    1.2375    0.0000 C   0  0  0  0  0  0  0  0  0  0  0  0
    5.7158    0.8250    0.0000 C   0  0  0  0  0  0  0  0  0  0  0  0
    5.7158   -0.0000    0.0000 C   0  0  0  0  0  0  0  0  0  0  0  0
    5.0013   -0.4125    0.0000 C   0  0  0  0  0  0  0  0  0  0  0  0
    3.5724   -1.2375    0.0000 C   0  0  0  0  0  0  0  0  0  0  0  0
    2.8579   -1.6500    0.0000 N   0  0  0  0  0  0  0  0  0  0  0  0
    2.1434   -1.2375    0.0000 C   0  0  0  0  0  0  0  0  0  0  0  0
    4.2868   -1.6500    0.0000 C   0  0  0  0  0  0  0  0  0  0  0  0
    5.0013   -1.2375    0.0000 C   0  0  0  0  0  0  0  0  0  0  0  0
    5.7158   -1.6500    0.0000 C   0  0  0  0  0  0  0  0  0  0  0  0
    5.7158   -2.4750    0.0000 C   0  0  0  0  0  0  0  0  0  0  0  0
    5.0013   -2.8875    0.0000 C   0  0  0  0  0  0  0  0  0  0  0  0
    4.2868   -2.4750    0.0000 C   0  0  0  0  0  0  0  0  0  0  0  0
    0.0000    0.0000    0.0000 N   0  0  0  0  0  0  0  0  0  0  0  0
   -0.7145   -0.4125    0.0000 C   0  0  0  0  0  0  0  0  0  0  0  0
   -1.4289    0.0000    0.0000 C   0  0  0  0  0  0  0  0  0  0  0  0
   -1.4289    0.8250    0.0000 C   0  0  0  0  0  0  0  0  0  0  0  0
   -0.7145    1.2375    0.0000 C   0  0  0  0  0  0  0  0  0  0  0  0
    0.0000    0.8250    0.0000 C   0  0  0  0  0  0  0  0  0  0  0  0
  1  2  1  0  0  0  0
  2  3  1  0  0  0  0
  3  4  1  0  0  0  0
  4  5  1  0  0  0  0
  4  8  1  0  0  0  0
  5  6  1  0  0  0  0
  6  7  1  0  0  0  0
  8  9  2  0  0  0  0
  8 23  1  0  0  0  0
  9 10  1  0  0  0  0
 10 11  2  0  0  0  0
 10 30  1  0  0  0  0
 11 12  1  0  0  0  0
 12 13  2  0  0  0  0
 12 23  1  0  0  0  0
 13 14  1  0  0  0  0
 14 15  1  0  0  0  0
 14 21  2  0  0  0  0
 15 16  1  0  0  0  0
 15 20  1  0  0  0  0
 16 17  1  0  0  0  0
 17 18  1  0  0  0  0
 18 19  1  0  0  0  0
 19 20  1  0  0  0  0
 21 22  1  0  0  0  0
 21 24  1  0  0  0  0
 22 23  2  0  0  0  0
 24 25  2  0  0  0  0
 24 29  1  0  0  0  0
 25 26  1  0  0  0  0
 26 27  2  0  0  0  0
 27 28  1  0  0  0  0
 28 29  2  0  0  0  0
 30 31  1  0  0  0  0
 30 35  1  0  0  0  0
 31 32  1  0  0  0  0
 32 33  1  0  0  0  0
 33 34  1  0  0  0  0
 34 35  1  0  0  0  0
M  END
$$$$

 OpenBabel12191814062D

 26 28  0  0  0  0  0  0  0  0999 V2000
    4.9056    0.4482    0.0000 O   0  0  0  0  0  0  0  0  0  0  0  0
    5.4457    1.0718    0.0000 C   0  0  0  0  0  0  0  0  0  0  0  0
    6.2559    0.9159    0.0000 C   0  0  0  0  0  0  0  0  0  0  0  0
    6.7959    1.5395    0.0000 N   0  0  0  0  0  0  0  0  0  0  0  0
    6.5259    2.3191    0.0000 C   0  0  0  0  0  0  0  0  0  0  0  0
    5.7158    2.4750    0.0000 C   0  0  0  0  0  0  0  0  0  0  0  0
    5.4457    3.2546    0.0000 O   0  0  0  0  0  0  0  0  0  0  0  0
    7.6061    1.3836    0.0000 C   0  0  0  0  0  0  0  0  0  0  0  0
    8.1462    2.0073    0.0000 C   0  0  0  0  0  0  0  0  0  0  0  0
    8.9563    1.8514    0.0000 C   0  0  0  0  0  0  0  0  0  0  0  0
    9.4964    2.4750    0.0000 C   0  0  0  0  0  0  0  0  0  0  0  0
   10.3065    2.3191    0.0000 N   0  0  0  0  0  0  0  0  0  0  0  0
   10.8466    2.9427    0.0000 C   0  0  0  0  0  0  0  0  0  0  0  0
   10.5766    3.7223    0.0000 C   0  0  0  0  0  0  0  0  0  0  0  0
   11.1167    4.3459    0.0000 C   0  0  0  0  0  0  0  0  0  0  0  0
   11.9268    4.1900    0.0000 C   0  0  0  0  0  0  0  0  0  0  0  0
   12.1968    3.4105    0.0000 C   0  0  0  0  0  0  0  0  0  0  0  0
   11.6567    2.7868    0.0000 C   0  0  0  0  0  0  0  0  0  0  0  0
   11.9268    2.0073    0.0000 C   0  0  0  0  0  0  0  0  0  0  0  0
   12.7369    1.8514    0.0000 O   0  0  0  0  0  0  0  0  0  0  0  0
   11.3867    1.3836    0.0000 C   0  0  0  0  0  0  0  0  0  0  0  0
   11.6567    0.6041    0.0000 C   0  0  0  0  0  0  0  0  0  0  0  0
   11.1167   -0.0196    0.0000 C   0  0  0  0  0  0  0  0  0  0  0  0
   10.3065    0.1363    0.0000 C   0  0  0  0  0  0  0  0  0  0  0  0
   10.0365    0.9159    0.0000 C   0  0  0  0  0  0  0  0  0  0  0  0
   10.5766    1.5395    0.0000 C   0  0  0  0  0  0  0  0  0  0  0  0
  1  2  1  0  0  0  0
  2  3  1  0  0  0  0
  3  4  1  0  0  0  0
  4  5  1  0  0  0  0
  4  8  1  0  0  0  0
  5  6  1  0  0  0  0
  6  7  1  0  0  0  0
  8  9  1  0  0  0  0
  9 10  1  0  0  0  0
 10 11  1  0  0  0  0
 11 12  1  0  0  0  0
 12 13  1  0  0  0  0
 12 26  1  0  0  0  0
 13 14  2  0  0  0  0
 13 18  1  0  0  0  0
 14 15  1  0  0  0  0
 15 16  2  0  0  0  0
 16 17  1  0  0  0  0
 17 18  2  0  0  0  0
 18 19  1  0  0  0  0
 19 20  2  0  0  0  0
 19 21  1  0  0  0  0
 21 22  2  0  0  0  0
 21 26  1  0  0  0  0
 22 23  1  0  0  0  0
 23 24  2  0  0  0  0
 24 25  1  0  0  0  0
 25 26  2  0  0  0  0
M  END
$$$$

 OpenBabel12191814062D

 25 27  0  0  0  0  0  0  0  0999 V2000
    1.6204    4.6184    0.0000 O   0  0  0  0  0  0  0  0  0  0  0  0
    2.0329    3.9039    0.0000 C   0  0  0  0  0  0  0  0  0  0  0  0
    2.8579    3.9039    0.0000 C   0  0  0  0  0  0  0  0  0  0  0  0
    3.2704    3.1895    0.0000 N   0  0  0  0  0  0  0  0  0  0  0  0
    2.8579    2.4750    0.0000 C   0  0  0  0  0  0  0  0  0  0  0  0
    3.2704    1.7605    0.0000 C   0  0  0  0  0  0  0  0  0  0  0  0
    2.8579    1.0461    0.0000 O   0  0  0  0  0  0  0  0  0  0  0  0
    4.0954    3.1895    0.0000 C   0  0  0  0  0  0  0  0  0  0  0  0
    4.5079    2.4750    0.0000 C   0  0  0  0  0  0  0  0  0  0  0  0
    5.3329    2.4750    0.0000 C   0  0  0  0  0  0  0  0  0  0  0  0
    5.7454    1.7605    0.0000 N   0  0  0  0  0  0  0  0  0  0  0  0
    6.5704    1.7605    0.0000 C   0  0  0  0  0  0  0  0  0  0  0  0
    6.9829    2.4750    0.0000 C   0  0  0  0  0  0  0  0  0  0  0  0
    7.8079    2.4750    0.0000 C   0  0  0  0  0  0  0  0  0  0  0  0
    8.2204    1.7605    0.0000 C   0  0  0  0  0  0  0  0  0  0  0  0
    7.8079    1.0461    0.0000 C   0  0  0  0  0  0  0  0  0  0  0  0
    6.9829    1.0461    0.0000 C   0  0  0  0  0  0  0  0  0  0  0  0
    6.5704    0.3316    0.0000 C   0  0  0  0  0  0  0  0  0  0  0  0
    6.9829   -0.3829    0.0000 O   0  0  0  0  0  0  0  0  0  0  0  0
    5.7454    0.3316    0.0000 C   0  0  0  0  0  0  0  0  0  0  0  0
    5.3329   -0.3829    0.0000 C   0  0  0  0  0  0  0  0  0  0  0  0
    4.5079   -0.3829    0.0000 C   0  0  0  0  0  0  0  0  0  0  0  0
    4.0954    0.3316    0.0000 C   0  0  0  0  0  0  0  0  0  0  0  0
    4.5079    1.0461    0.0000 C   0  0  0  0  0  0  0  0  0  0  0  0
    5.3329    1.0461    0.0000 C   0  0  0  0  0  0  0  0  0  0  0  0
  1  2  1  0  0  0  0
  2  3  1  0  0  0  0
  3  4  1  0  0  0  0
  4  5  1  0  0  0  0
  4  8  1  0  0  0  0
  5  6  1  0  0  0  0
  6  7  1  0  0  0  0
  8  9  1  0  0  0  0
  9 10  1  0  0  0  0
 10 11  1  0  0  0  0
 11 12  1  0  0  0  0
 11 25  1  0  0  0  0
 12 13  2  0  0  0  0
 12 17  1  0  0  0  0
 13 14  1  0  0  0  0
 14 15  2  0  0  0  0
 15 16  1  0  0  0  0
 16 17  2  0  0  0  0
 17 18  1  0  0  0  0
 18 19  2  0  0  0  0
 18 20  1  0  0  0  0
 20 21  2  0  0  0  0
 20 25  1  0  0  0  0
 21 22  1  0  0  0  0
 22 23  2  0  0  0  0
 23 24  1  0  0  0  0
 24 25  2  0  0  0  0
M  END
$$$$

 OpenBabel12191814062D

 24 26  0  0  0  0  0  0  0  0999 V2000
    1.6204    4.6184    0.0000 O   0  0  0  0  0  0  0  0  0  0  0  0
    2.0329    3.9039    0.0000 C   0  0  0  0  0  0  0  0  0  0  0  0
    2.8579    3.9039    0.0000 C   0  0  0  0  0  0  0  0  0  0  0  0
    3.2704    3.1895    0.0000 N   0  0  0  0  0  0  0  0  0  0  0  0
    2.8579    2.4750    0.0000 C   0  0  0  0  0  0  0  0  0  0  0  0
    3.2704    1.7605    0.0000 C   0  0  0  0  0  0  0  0  0  0  0  0
    2.8579    1.0461    0.0000 O   0  0  0  0  0  0  0  0  0  0  0  0
    4.0954    3.1895    0.0000 C   0  0  0  0  0  0  0  0  0  0  0  0
    4.5079    2.4750    0.0000 C   0  0  0  0  0  0  0  0  0  0  0  0
    5.3329    2.4750    0.0000 C   0  0  0  0  0  0  0  0  0  0  0  0
    5.7454    1.7605    0.0000 N   0  0  0  0  0  0  0  0  0  0  0  0
    6.5704    1.7605    0.0000 C   0  0  0  0  0  0  0  0  0  0  0  0
    6.9829    2.4750    0.0000 C   0  0  0  0  0  0  0  0  0  0  0  0
    7.8079    2.4750    0.0000 C   0  0  0  0  0  0  0  0  0  0  0  0
    8.2204    1.7605    0.0000 C   0  0  0  0  0  0  0  0  0  0  0  0
    7.8079    1.0461    0.0000 C   0  0  0  0  0  0  0  0  0  0  0  0
    6.9829    1.0461    0.0000 C   0  0  0  0  0  0  0  0  0  0  0  0
    6.5704    0.3316    0.0000 O   0  0  0  0  0  0  0  0  0  0  0  0
    5.7454    0.3316    0.0000 C   0  0  0  0  0  0  0  0  0  0  0  0
    5.3329   -0.3829    0.0000 C   0  0  0  0  0  0  0  0  0  0  0  0
    4.5079   -0.3829    0.0000 C   0  0  0  0  0  0  0  0  0  0  0  0
    4.0954    0.3316    0.0000 C   0  0  0  0  0  0  0  0  0  0  0  0
    4.5079    1.0461    0.0000 C   0  0  0  0  0  0  0  0  0  0  0  0
    5.3329    1.0461    0.0000 C   0  0  0  0  0  0  0  0  0  0  0  0
  1  2  1  0  0  0  0
  2  3  1  0  0  0  0
  3  4  1  0  0  0  0
  4  5  1  0  0  0  0
  4  8  1  0  0  0  0
  5  6  1  0  0  0  0
  6  7  1  0  0  0  0
  8  9  1  0  0  0  0
  9 10  1  0  0  0  0
 10 11  1  0  0  0  0
 11 12  1  0  0  0  0
 11 24  1  0  0  0  0
 12 13  2  0  0  0  0
 12 17  1  0  0  0  0
 13 14  1  0  0  0  0
 14 15  2  0  0  0  0
 15 16  1  0  0  0  0
 16 17  2  0  0  0  0
 17 18  1  0  0  0  0
 18 19  1  0  0  0  0
 19 20  2  0  0  0  0
 19 24  1  0  0  0  0
 20 21  1  0  0  0  0
 21 22  2  0  0  0  0
 22 23  1  0  0  0  0
 23 24  2  0  0  0  0
M  END
$$$$

 OpenBabel12191814062D

 31 34  0  0  0  0  0  0  0  0999 V2000
    6.4302    6.1875    0.0000 O   0  0  0  0  0  0  0  0  0  0  0  0
    5.7158    5.7750    0.0000 C   0  0  0  0  0  0  0  0  0  0  0  0
    5.7158    4.9500    0.0000 C   0  0  0  0  0  0  0  0  0  0  0  0
    5.0013    4.5375    0.0000 N   0  0  0  0  0  0  0  0  0  0  0  0
    5.0013    3.7125    0.0000 C   0  0  0  0  0  0  0  0  0  0  0  0
    4.2868    3.3000    0.0000 C   0  0  0  0  0  0  0  0  0  0  0  0
    3.5724    3.7125    0.0000 N   0  0  0  0  0  0  0  0  0  0  0  0
    2.8579    3.3000    0.0000 C   0  0  0  0  0  0  0  0  0  0  0  0
    2.8579    2.4750    0.0000 C   0  0  0  0  0  0  0  0  0  0  0  0
    2.1434    2.0625    0.0000 C   0  0  0  0  0  0  0  0  0  0  0  0
    2.1434    1.2375    0.0000 C   0  0  0  0  0  0  0  0  0  0  0  0
    2.8579    0.8250    0.0000 C   0  0  0  0  0  0  0  0  0  0  0  0
    3.5724    1.2375    0.0000 C   0  0  0  0  0  0  0  0  0  0  0  0
    4.2868    0.8250    0.0000 C   0  0  0  0  0  0  0  0  0  0  0  0
    4.2868   -0.0000    0.0000 C   0  0  0  0  0  0  0  0  0  0  0  0
    5.0013   -0.4125    0.0000 F   0  0  0  0  0  0  0  0  0  0  0  0
    3.5724   -0.4125    0.0000 C   0  0  0  0  0  0  0  0  0  0  0  0
    2.8579    0.0000    0.0000 C   0  0  0  0  0  0  0  0  0  0  0  0
    2.1434   -0.4125    0.0000 S   0  0  0  0  0  0  0  0  0  0  0  0
    1.4289    0.0000    0.0000 C   0  0  0  0  0  0  0  0  0  0  0  0
    0.7145   -0.4125    0.0000 C   0  0  0  0  0  0  0  0  0  0  0  0
    0.0000    0.0000    0.0000 C   0  0  0  0  0  0  0  0  0  0  0  0
    0.0000    0.8250    0.0000 C   0  0  0  0  0  0  0  0  0  0  0  0
    0.7145    1.2375    0.0000 C   0  0  0  0  0  0  0  0  0  0  0  0
    1.4289    0.8250    0.0000 C   0  0  0  0  0  0  0  0  0  0  0  0
   -0.7145    1.2375    0.0000 C   0  0  0  0  0  0  0  0  0  0  0  0
   -1.4289    1.6500    0.0000 F   0  0  0  0  0  0  0  0  0  0  0  0
   -0.3020    1.9520    0.0000 F   0  0  0  0  0  0  0  0  0  0  0  0
   -1.1270    0.5230    0.0000 F   0  0  0  0  0  0  0  0  0  0  0  0
    3.5724    4.5375    0.0000 C   0  0  0  0  0  0  0  0  0  0  0  0
    4.2868    4.9500    0.0000 C   0  0  0  0  0  0  0  0  0  0  0  0
  1  2  1  0  0  0  0
  2  3  1  0  0  0  0
  3  4  1  0  0  0  0
  4  5  1  0  0  0  0
  4 31  1  0  0  0  0
  5  6  1  0  0  0  0
  6  7  1  0  0  0  0
  7  8  1  0  0  0  0
  7 30  1  0  0  0  0
  8  9  1  0  0  0  0
  9 10  1  0  0  0  0
 10 11  2  0  0  0  0
 11 12  1  0  0  0  0
 11 25  1  0  0  0  0
 12 13  2  0  0  0  0
 12 18  1  0  0  0  0
 13 14  1  0  0  0  0
 14 15  2  0  0  0  0
 15 16  1  0  0  0  0
 15 17  1  0  0  0  0
 17 18  2  0  0  0  0
 18 19  1  0  0  0  0
 19 20  1  0  0  0  0
 20 21  2  0  0  0  0
 20 25  1  0  0  0  0
 21 22  1  0  0  0  0
 22 23  2  0  0  0  0
 23 24  1  0  0  0  0
 23 26  1  0  0  0  0
 24 25  2  0  0  0  0
 26 27  1  0  0  0  0
 26 28  1  0  0  0  0
 26 29  1  0  0  0  0
 30 31  1  0  0  0  0
M  END
$$$$

 OpenBabel12191814062D

 27 30  0  0  0  0  0  0  0  0999 V2000
    6.4302    6.1875    0.0000 O   0  0  0  0  0  0  0  0  0  0  0  0
    5.7158    5.7750    0.0000 C   0  0  0  0  0  0  0  0  0  0  0  0
    5.7158    4.9500    0.0000 C   0  0  0  0  0  0  0  0  0  0  0  0
    5.0013    4.5375    0.0000 N   0  0  0  0  0  0  0  0  0  0  0  0
    5.0013    3.7125    0.0000 C   0  0  0  0  0  0  0  0  0  0  0  0
    4.2868    3.3000    0.0000 C   0  0  0  0  0  0  0  0  0  0  0  0
    3.5724    3.7125    0.0000 N   0  0  0  0  0  0  0  0  0  0  0  0
    2.8579    3.3000    0.0000 C   0  0  0  0  0  0  0  0  0  0  0  0
    2.8579    2.4750    0.0000 C   0  0  0  0  0  0  0  0  0  0  0  0
    2.1434    2.0625    0.0000 C   0  0  0  0  0  0  0  0  0  0  0  0
    2.1434    1.2375    0.0000 C   0  0  0  0  0  0  0  0  0  0  0  0
    2.8579    0.8250    0.0000 C   0  0  0  0  0  0  0  0  0  0  0  0
    3.5724    1.2375    0.0000 C   0  0  0  0  0  0  0  0  0  0  0  0
    4.2868    0.8250    0.0000 C   0  0  0  0  0  0  0  0  0  0  0  0
    4.2868   -0.0000    0.0000 C   0  0  0  0  0  0  0  0  0  0  0  0
    3.5724   -0.4125    0.0000 C   0  0  0  0  0  0  0  0  0  0  0  0
    2.8579    0.0000    0.0000 C   0  0  0  0  0  0  0  0  0  0  0  0
    2.1434   -0.4125    0.0000 S   0  0  0  0  0  0  0  0  0  0  0  0
    1.4289    0.0000    0.0000 C   0  0  0  0  0  0  0  0  0  0  0  0
    0.7145   -0.4125    0.0000 C   0  0  0  0  0  0  0  0  0  0  0  0
    0.0000    0.0000    0.0000 C   0  0  0  0  0  0  0  0  0  0  0  0
    0.0000    0.8250    0.0000 C   0  0  0  0  0  0  0  0  0  0  0  0
   -0.7145    1.2375    0.0000 Cl  0  0  0  0  0  0  0  0  0  0  0  0
    0.7145    1.2375    0.0000 C   0  0  0  0  0  0  0  0  0  0  0  0
    1.4289    0.8250    0.0000 C   0  0  0  0  0  0  0  0  0  0  0  0
    3.5724    4.5375    0.0000 C   0  0  0  0  0  0  0  0  0  0  0  0
    4.2868    4.9500    0.0000 C   0  0  0  0  0  0  0  0  0  0  0  0
  1  2  1  0  0  0  0
  2  3  1  0  0  0  0
  3  4  1  0  0  0  0
  4  5  1  0  0  0  0
  4 27  1  0  0  0  0
  5  6  1  0  0  0  0
  6  7  1  0  0  0  0
  7  8  1  0  0  0  0
  7 26  1  0  0  0  0
  8  9  1  0  0  0  0
  9 10  1  0  0  0  0
 10 11  2  0  0  0  0
 11 12  1  0  0  0  0
 11 25  1  0  0  0  0
 12 13  2  0  0  0  0
 12 17  1  0  0  0  0
 13 14  1  0  0  0  0
 14 15  2  0  0  0  0
 15 16  1  0  0  0  0
 16 17  2  0  0  0  0
 17 18  1  0  0  0  0
 18 19  1  0  0  0  0
 19 20  2  0  0  0  0
 19 25  1  0  0  0  0
 20 21  1  0  0  0  0
 21 22  2  0  0  0  0
 22 23  1  0  0  0  0
 22 24  1  0  0  0  0
 24 25  2  0  0  0  0
 26 27  1  0  0  0  0
M  END
$$$$

 OpenBabel12191814062D

 28 31  0  0  0  0  0  0  0  0999 V2000
   -1.1976    4.0445    0.0000 O   0  0  0  0  0  0  0  0  0  0  0  0
   -0.4832    3.6320    0.0000 C   0  0  0  0  0  0  0  0  0  0  0  0
    0.2313    4.0445    0.0000 C   0  0  0  0  0  0  0  0  0  0  0  0
    0.9458    3.6320    0.0000 N   0  0  0  0  0  0  0  0  0  0  0  0
    1.6603    4.0445    0.0000 C   0  0  0  0  0  0  0  0  0  0  0  0
    2.3747    3.6320    0.0000 C   0  0  0  0  0  0  0  0  0  0  0  0
    2.3747    2.8070    0.0000 N   0  0  0  0  0  0  0  0  0  0  0  0
    3.0892    2.3945    0.0000 C   0  0  0  0  0  0  0  0  0  0  0  0
    3.0892    1.5695    0.0000 C   0  0  0  0  0  0  0  0  0  0  0  0
    3.8037    1.1570    0.0000 C   0  0  0  0  0  0  0  0  0  0  0  0
    3.8037    0.3320    0.0000 C   0  0  0  0  0  0  0  0  0  0  0  0
    4.5470   -0.0260    0.0000 C   0  0  0  0  0  0  0  0  0  0  0  0
    5.1517    0.5352    0.0000 C   0  0  0  0  0  0  0  0  0  0  0  0
    5.9401    0.2920    0.0000 C   0  0  0  0  0  0  0  0  0  0  0  0
    6.1237   -0.5123    0.0000 C   0  0  0  0  0  0  0  0  0  0  0  0
    5.5189   -1.0735    0.0000 C   0  0  0  0  0  0  0  0  0  0  0  0
    4.7305   -0.8303    0.0000 C   0  0  0  0  0  0  0  0  0  0  0  0
    4.2162   -1.4753    0.0000 C   0  0  0  0  0  0  0  0  0  0  0  0
    3.3912   -1.4753    0.0000 O   0  0  0  0  0  0  0  0  0  0  0  0
    2.8768   -0.8303    0.0000 C   0  0  0  0  0  0  0  0  0  0  0  0
    2.0884   -1.0735    0.0000 C   0  0  0  0  0  0  0  0  0  0  0  0
    1.4837   -0.5123    0.0000 C   0  0  0  0  0  0  0  0  0  0  0  0
    1.6673    0.2920    0.0000 C   0  0  0  0  0  0  0  0  0  0  0  0
    1.0625    0.8531    0.0000 Cl  0  0  0  0  0  0  0  0  0  0  0  0
    2.4556    0.5352    0.0000 C   0  0  0  0  0  0  0  0  0  0  0  0
    3.0604   -0.0260    0.0000 C   0  0  0  0  0  0  0  0  0  0  0  0
    1.6603    2.3945    0.0000 C   0  0  0  0  0  0  0  0  0  0  0  0
    0.9458    2.8070    0.0000 C   0  0  0  0  0  0  0  0  0  0  0  0
  1  2  1  0  0  0  0
  2  3  1  0  0  0  0
  3  4  1  0  0  0  0
  4  5  1  0  0  0  0
  4 28  1  0  0  0  0
  5  6  1  0  0  0  0
  6  7  1  0  0  0  0
  7  8  1  0  0  0  0
  7 27  1  0  0  0  0
  8  9  1  0  0  0  0
  9 10  1  0  0  0  0
 10 11  2  0  0  0  0
 11 12  1  0  0  0  0
 11 26  1  0  0  0  0
 12 13  2  0  0  0  0
 12 17  1  0  0  0  0
 13 14  1  0  0  0  0
 14 15  2  0  0  0  0
 15 16  1  0  0  0  0
 16 17  2  0  0  0  0
 17 18  1  0  0  0  0
 18 19  1  0  0  0  0
 19 20  1  0  0  0  0
 20 21  2  0  0  0  0
 20 26  1  0  0  0  0
 21 22  1  0  0  0  0
 22 23  2  0  0  0  0
 23 24  1  0  0  0  0
 23 25  1  0  0  0  0
 25 26  2  0  0  0  0
 27 28  1  0  0  0  0
M  END
$$$$

 OpenBabel12191814062D

 30 33  0  0  0  0  0  0  0  0999 V2000
   -2.8579    4.9500    0.0000 O   0  0  0  0  0  0  0  0  0  0  0  0
   -2.1434    4.5375    0.0000 C   0  0  0  0  0  0  0  0  0  0  0  0
   -1.4289    4.9500    0.0000 C   0  0  0  0  0  0  0  0  0  0  0  0
   -0.7145    4.5375    0.0000 N   0  0  0  0  0  0  0  0  0  0  0  0
   -0.0000    4.9500    0.0000 C   0  0  0  0  0  0  0  0  0  0  0  0
    0.7145    4.5375    0.0000 C   0  0  0  0  0  0  0  0  0  0  0  0
    0.7145    3.7125    0.0000 N   0  0  0  0  0  0  0  0  0  0  0  0
    1.4289    3.3000    0.0000 C   0  0  0  0  0  0  0  0  0  0  0  0
    1.4289    2.4750    0.0000 C   0  0  0  0  0  0  0  0  0  0  0  0
    2.1434    2.0625    0.0000 C   0  0  0  0  0  0  0  0  0  0  0  0
    2.1434    1.2375    0.0000 C   0  0  0  0  0  0  0  0  0  0  0  0
    2.8579    0.8250    0.0000 C   0  0  0  0  0  0  0  0  0  0  0  0
    3.5724    1.2375    0.0000 C   0  0  0  0  0  0  0  0  0  0  0  0
    4.2868    0.8250    0.0000 C   0  0  0  0  0  0  0  0  0  0  0  0
    4.2868   -0.0000    0.0000 C   0  0  0  0  0  0  0  0  0  0  0  0
    3.5724   -0.4125    0.0000 C   0  0  0  0  0  0  0  0  0  0  0  0
    2.8579    0.0000    0.0000 C   0  0  0  0  0  0  0  0  0  0  0  0
    2.1434   -0.4125    0.0000 S   0  0  0  0  0  0  0  0  0  0  0  0
    1.4289    0.0000    0.0000 C   0  0  0  0  0  0  0  0  0  0  0  0
    0.7145   -0.4125    0.0000 C   0  0  0  0  0  0  0  0  0  0  0  0
    0.0000    0.0000    0.0000 C   0  0  0  0  0  0  0  0  0  0  0  0
    0.0000    0.8250    0.0000 C   0  0  0  0  0  0  0  0  0  0  0  0
    0.7145    1.2375    0.0000 C   0  0  0  0  0  0  0  0  0  0  0  0
    1.4289    0.8250    0.0000 C   0  0  0  0  0  0  0  0  0  0  0  0
   -0.7145    1.2375    0.0000 C   0  0  0  0  0  0  0  0  0  0  0  0
   -1.4289    1.6500    0.0000 F   0  0  0  0  0  0  0  0  0  0  0  0
   -0.3020    1.9520    0.0000 F   0  0  0  0  0  0  0  0  0  0  0  0
   -1.1270    0.5230    0.0000 F   0  0  0  0  0  0  0  0  0  0  0  0
   -0.0000    3.3000    0.0000 C   0  0  0  0  0  0  0  0  0  0  0  0
   -0.7145    3.7125    0.0000 C   0  0  0  0  0  0  0  0  0  0  0  0
  1  2  1  0  0  0  0
  2  3  1  0  0  0  0
  3  4  1  0  0  0  0
  4  5  1  0  0  0  0
  4 30  1  0  0  0  0
  5  6  1  0  0  0  0
  6  7  1  0  0  0  0
  7  8  1  0  0  0  0
  7 29  1  0  0  0  0
  8  9  1  0  0  0  0
  9 10  1  0  0  0  0
 10 11  2  0  0  0  0
 11 12  1  0  0  0  0
 11 24  1  0  0  0  0
 12 13  2  0  0  0  0
 12 17  1  0  0  0  0
 13 14  1  0  0  0  0
 14 15  2  0  0  0  0
 15 16  1  0  0  0  0
 16 17  2  0  0  0  0
 17 18  1  0  0  0  0
 18 19  1  0  0  0  0
 19 20  2  0  0  0  0
 19 24  1  0  0  0  0
 20 21  1  0  0  0  0
 21 22  2  0  0  0  0
 22 23  1  0  0  0  0
 22 25  1  0  0  0  0
 23 24  2  0  0  0  0
 25 26  1  0  0  0  0
 25 27  1  0  0  0  0
 25 28  1  0  0  0  0
 29 30  1  0  0  0  0
M  END
$$$$

 OpenBabel12191814062D

 29 32  0  0  0  0  0  0  0  0999 V2000
    0.4161   -5.9016    0.0000 O   0  0  0  0  0  0  0  0  0  0  0  0
    0.6710   -5.1170    0.0000 C   0  0  0  0  0  0  0  0  0  0  0  0
    0.1190   -4.5039    0.0000 C   0  0  0  0  0  0  0  0  0  0  0  0
    0.3739   -3.7192    0.0000 N   0  0  0  0  0  0  0  0  0  0  0  0
   -0.1781   -3.1062    0.0000 C   0  0  0  0  0  0  0  0  0  0  0  0
    0.0768   -2.3215    0.0000 C   0  0  0  0  0  0  0  0  0  0  0  0
    0.8838   -2.1500    0.0000 N   0  0  0  0  0  0  0  0  0  0  0  0
    1.4358   -2.7631    0.0000 C   0  0  0  0  0  0  0  0  0  0  0  0
    1.1809   -3.5477    0.0000 C   0  0  0  0  0  0  0  0  0  0  0  0
    1.1387   -1.3654    0.0000 C   0  0  3  0  0  0  0  0  0  0  0  0
    0.6538   -0.6979    0.0000 C   0  0  0  0  0  0  0  0  0  0  0  0
    1.1387   -0.0305    0.0000 C   0  0  3  0  0  0  0  0  0  0  0  0
    1.9233   -0.2854    0.0000 C   0  0  0  0  0  0  0  0  0  0  0  0
    2.6378    0.1271    0.0000 C   0  0  0  0  0  0  0  0  0  0  0  0
    3.3523   -0.2854    0.0000 C   0  0  0  0  0  0  0  0  0  0  0  0
    3.3523   -1.1104    0.0000 C   0  0  0  0  0  0  0  0  0  0  0  0
    2.6378   -1.5229    0.0000 C   0  0  0  0  0  0  0  0  0  0  0  0
    1.9233   -1.1104    0.0000 C   0  0  0  0  0  0  0  0  0  0  0  0
    4.0668   -1.5229    0.0000 C   0  0  0  0  0  0  0  0  0  0  0  0
    4.7812   -1.9354    0.0000 F   0  0  0  0  0  0  0  0  0  0  0  0
    3.6543   -2.2374    0.0000 F   0  0  0  0  0  0  0  0  0  0  0  0
    4.4793   -0.8085    0.0000 F   0  0  0  0  0  0  0  0  0  0  0  0
    0.8838    0.7541    0.0000 C   0  0  0  0  0  0  0  0  0  0  0  0
    0.0768    0.9256    0.0000 C   0  0  0  0  0  0  0  0  0  0  0  0
   -0.1781    1.7103    0.0000 C   0  0  0  0  0  0  0  0  0  0  0  0
    0.3739    2.3234    0.0000 C   0  0  0  0  0  0  0  0  0  0  0  0
    0.1190    3.1080    0.0000 F   0  0  0  0  0  0  0  0  0  0  0  0
    1.1809    2.1518    0.0000 C   0  0  0  0  0  0  0  0  0  0  0  0
    1.4358    1.3672    0.0000 C   0  0  0  0  0  0  0  0  0  0  0  0
  1  2  1  0  0  0  0
  2  3  1  0  0  0  0
  3  4  1  0  0  0  0
  4  5  1  0  0  0  0
  4  9  1  0  0  0  0
  5  6  1  0  0  0  0
  6  7  1  0  0  0  0
  7  8  1  0  0  0  0
  7 10  1  0  0  0  0
  8  9  1  0  0  0  0
 10 11  1  0  0  0  0
 10 18  1  0  0  0  0
 11 12  1  0  0  0  0
 12 13  1  0  0  0  0
 12 23  1  0  0  0  0
 13 14  2  0  0  0  0
 13 18  1  0  0  0  0
 14 15  1  0  0  0  0
 15 16  2  0  0  0  0
 16 17  1  0  0  0  0
 16 19  1  0  0  0  0
 17 18  2  0  0  0  0
 19 20  1  0  0  0  0
 19 21  1  0  0  0  0
 19 22  1  0  0  0  0
 23 24  2  0  0  0  0
 23 29  1  0  0  0  0
 24 25  1  0  0  0  0
 25 26  2  0  0  0  0
 26 27  1  0  0  0  0
 26 28  1  0  0  0  0
 28 29  2  0  0  0  0
M  END
$$$$

 OpenBabel12191814062D

 28 31  0  0  0  0  0  0  0  0999 V2000
   -0.0000    8.2500    0.0000 O   0  0  0  0  0  0  0  0  0  0  0  0
   -0.0000    7.4250    0.0000 C   0  0  0  0  0  0  0  0  0  0  0  0
    0.7145    7.0125    0.0000 C   0  0  0  0  0  0  0  0  0  0  0  0
    0.7145    6.1875    0.0000 N   0  0  0  0  0  0  0  0  0  0  0  0
    1.4289    5.7750    0.0000 C   0  0  0  0  0  0  0  0  0  0  0  0
    1.4289    4.9500    0.0000 C   0  0  0  0  0  0  0  0  0  0  0  0
    0.7145    4.5375    0.0000 N   0  0  0  0  0  0  0  0  0  0  0  0
    0.7145    3.7125    0.0000 C   0  0  0  0  0  0  0  0  0  0  0  0
    1.4289    3.3000    0.0000 C   0  0  0  0  0  0  0  0  0  0  0  0
    1.4289    2.4750    0.0000 C   0  0  0  0  0  0  0  0  0  0  0  0
    2.1434    2.0625    0.0000 C   0  0  0  0  0  0  0  0  0  0  0  0
    2.1434    1.2375    0.0000 N   0  0  0  0  0  0  0  0  0  0  0  0
    2.8579    0.8250    0.0000 C   0  0  0  0  0  0  0  0  0  0  0  0
    3.5724    1.2375    0.0000 C   0  0  0  0  0  0  0  0  0  0  0  0
    4.2868    0.8250    0.0000 C   0  0  0  0  0  0  0  0  0  0  0  0
    4.2868   -0.0000    0.0000 C   0  0  0  0  0  0  0  0  0  0  0  0
    3.5724   -0.4125    0.0000 C   0  0  0  0  0  0  0  0  0  0  0  0
    2.8579    0.0000    0.0000 C   0  0  0  0  0  0  0  0  0  0  0  0
    2.1434   -0.4125    0.0000 C   0  0  0  0  0  0  0  0  0  0  0  0
    2.1434   -1.2375    0.0000 O   0  0  0  0  0  0  0  0  0  0  0  0
    1.4289    0.0000    0.0000 C   0  0  0  0  0  0  0  0  0  0  0  0
    0.7145   -0.4125    0.0000 C   0  0  0  0  0  0  0  0  0  0  0  0
    0.0000    0.0000    0.0000 C   0  0  0  0  0  0  0  0  0  0  0  0
    0.0000    0.8250    0.0000 C   0  0  0  0  0  0  0  0  0  0  0  0
    0.7145    1.2375    0.0000 C   0  0  0  0  0  0  0  0  0  0  0  0
    1.4289    0.8250    0.0000 C   0  0  0  0  0  0  0  0  0  0  0  0
   -0.0000    4.9500    0.0000 C   0  0  0  0  0  0  0  0  0  0  0  0
   -0.0000    5.7750    0.0000 C   0  0  0  0  0  0  0  0  0  0  0  0
  1  2  1  0  0  0  0
  2  3  1  0  0  0  0
  3  4  1  0  0  0  0
  4  5  1  0  0  0  0
  4 28  1  0  0  0  0
  5  6  1  0  0  0  0
  6  7  1  0  0  0  0
  7  8  1  0  0  0  0
  7 27  1  0  0  0  0
  8  9  1  0  0  0  0
  9 10  1  0  0  0  0
 10 11  1  0  0  0  0
 11 12  1  0  0  0  0
 12 13  1  0  0  0  0
 12 26  1  0  0  0  0
 13 14  2  0  0  0  0
 13 18  1  0  0  0  0
 14 15  1  0  0  0  0
 15 16  2  0  0  0  0
 16 17  1  0  0  0  0
 17 18  2  0  0  0  0
 18 19  1  0  0  0  0
 19 20  2  0  0  0  0
 19 21  1  0  0  0  0
 21 22  2  0  0  0  0
 21 26  1  0  0  0  0
 22 23  1  0  0  0  0
 23 24  2  0  0  0  0
 24 25  1  0  0  0  0
 25 26  2  0  0  0  0
 27 28  1  0  0  0  0
M  END
$$$$

 OpenBabel12191814062D

 27 30  0  0  0  0  0  0  0  0999 V2000
   -2.8579    4.9500    0.0000 O   0  0  0  0  0  0  0  0  0  0  0  0
   -2.1434    4.5375    0.0000 C   0  0  0  0  0  0  0  0  0  0  0  0
   -1.4289    4.9500    0.0000 C   0  0  0  0  0  0  0  0  0  0  0  0
   -0.7145    4.5375    0.0000 N   0  0  0  0  0  0  0  0  0  0  0  0
   -0.0000    4.9500    0.0000 C   0  0  0  0  0  0  0  0  0  0  0  0
    0.7145    4.5375    0.0000 C   0  0  0  0  0  0  0  0  0  0  0  0
    0.7145    3.7125    0.0000 N   0  0  0  0  0  0  0  0  0  0  0  0
    1.4289    3.3000    0.0000 C   0  0  0  0  0  0  0  0  0  0  0  0
    1.4289    2.4750    0.0000 C   0  0  0  0  0  0  0  0  0  0  0  0
    2.1434    2.0625    0.0000 C   0  0  0  0  0  0  0  0  0  0  0  0
    2.1434    1.2375    0.0000 N   0  0  0  0  0  0  0  0  0  0  0  0
    2.8579    0.8250    0.0000 C   0  0  0  0  0  0  0  0  0  0  0  0
    3.5724    1.2375    0.0000 C   0  0  0  0  0  0  0  0  0  0  0  0
    4.2868    0.8250    0.0000 C   0  0  0  0  0  0  0  0  0  0  0  0
    4.2868   -0.0000    0.0000 C   0  0  0  0  0  0  0  0  0  0  0  0
    3.5724   -0.4125    0.0000 C   0  0  0  0  0  0  0  0  0  0  0  0
    2.8579    0.0000    0.0000 C   0  0  0  0  0  0  0  0  0  0  0  0
    2.1434   -0.4125    0.0000 C   0  0  0  0  0  0  0  0  0  0  0  0
    2.1434   -1.2375    0.0000 O   0  0  0  0  0  0  0  0  0  0  0  0
    1.4289    0.0000    0.0000 C   0  0  0  0  0  0  0  0  0  0  0  0
    0.7145   -0.4125    0.0000 C   0  0  0  0  0  0  0  0  0  0  0  0
    0.0000    0.0000    0.0000 C   0  0  0  0  0  0  0  0  0  0  0  0
    0.0000    0.8250    0.0000 C   0  0  0  0  0  0  0  0  0  0  0  0
    0.7145    1.2375    0.0000 C   0  0  0  0  0  0  0  0  0  0  0  0
    1.4289    0.8250    0.0000 C   0  0  0  0  0  0  0  0  0  0  0  0
   -0.0000    3.3000    0.0000 C   0  0  0  0  0  0  0  0  0  0  0  0
   -0.7145    3.7125    0.0000 C   0  0  0  0  0  0  0  0  0  0  0  0
  1  2  1  0  0  0  0
  2  3  1  0  0  0  0
  3  4  1  0  0  0  0
  4  5  1  0  0  0  0
  4 27  1  0  0  0  0
  5  6  1  0  0  0  0
  6  7  1  0  0  0  0
  7  8  1  0  0  0  0
  7 26  1  0  0  0  0
  8  9  1  0  0  0  0
  9 10  1  0  0  0  0
 10 11  1  0  0  0  0
 11 12  1  0  0  0  0
 11 25  1  0  0  0  0
 12 13  2  0  0  0  0
 12 17  1  0  0  0  0
 13 14  1  0  0  0  0
 14 15  2  0  0  0  0
 15 16  1  0  0  0  0
 16 17  2  0  0  0  0
 17 18  1  0  0  0  0
 18 19  2  0  0  0  0
 18 20  1  0  0  0  0
 20 21  2  0  0  0  0
 20 25  1  0  0  0  0
 21 22  1  0  0  0  0
 22 23  2  0  0  0  0
 23 24  1  0  0  0  0
 24 25  2  0  0  0  0
 26 27  1  0  0  0  0
M  END
$$$$

 OpenBabel12191814062D

 30 33  0  0  0  0  0  0  0  0999 V2000
    6.4302    6.1875    0.0000 O   0  0  0  0  0  0  0  0  0  0  0  0
    5.7158    5.7750    0.0000 C   0  0  0  0  0  0  0  0  0  0  0  0
    5.7158    4.9500    0.0000 C   0  0  0  0  0  0  0  0  0  0  0  0
    5.0013    4.5375    0.0000 N   0  0  0  0  0  0  0  0  0  0  0  0
    5.0013    3.7125    0.0000 C   0  0  0  0  0  0  0  0  0  0  0  0
    4.2868    3.3000    0.0000 C   0  0  0  0  0  0  0  0  0  0  0  0
    3.5724    3.7125    0.0000 N   0  0  0  0  0  0  0  0  0  0  0  0
    2.8579    3.3000    0.0000 C   0  0  0  0  0  0  0  0  0  0  0  0
    2.8579    2.4750    0.0000 C   0  0  0  0  0  0  0  0  0  0  0  0
    2.1434    2.0625    0.0000 C   0  0  0  0  0  0  0  0  0  0  0  0
    2.1434    1.2375    0.0000 N   0  0  0  0  0  0  0  0  0  0  0  0
    2.8579    0.8250    0.0000 C   0  0  0  0  0  0  0  0  0  0  0  0
    3.5724    1.2375    0.0000 C   0  0  0  0  0  0  0  0  0  0  0  0
    4.2868    0.8250    0.0000 C   0  0  0  0  0  0  0  0  0  0  0  0
    4.2868   -0.0000    0.0000 C   0  0  0  0  0  0  0  0  0  0  0  0
    3.5724   -0.4125    0.0000 C   0  0  0  0  0  0  0  0  0  0  0  0
    2.8579    0.0000    0.0000 C   0  0  0  0  0  0  0  0  0  0  0  0
    2.1434   -0.4125    0.0000 S   0  0  0  0  0  0  0  0  0  0  0  0
    1.4289    0.0000    0.0000 C   0  0  0  0  0  0  0  0  0  0  0  0
    0.7145   -0.4125    0.0000 C   0  0  0  0  0  0  0  0  0  0  0  0
    0.0000    0.0000    0.0000 C   0  0  0  0  0  0  0  0  0  0  0  0
    0.0000    0.8250    0.0000 C   0  0  0  0  0  0  0  0  0  0  0  0
    0.7145    1.2375    0.0000 C   0  0  0  0  0  0  0  0  0  0  0  0
    1.4289    0.8250    0.0000 C   0  0  0  0  0  0  0  0  0  0  0  0
   -0.7145    1.2375    0.0000 C   0  0  0  0  0  0  0  0  0  0  0  0
   -1.4289    1.6500    0.0000 F   0  0  0  0  0  0  0  0  0  0  0  0
   -0.3020    1.9520    0.0000 F   0  0  0  0  0  0  0  0  0  0  0  0
   -1.1270    0.5230    0.0000 F   0  0  0  0  0  0  0  0  0  0  0  0
    3.5724    4.5375    0.0000 C   0  0  0  0  0  0  0  0  0  0  0  0
    4.2868    4.9500    0.0000 C   0  0  0  0  0  0  0  0  0  0  0  0
  1  2  1  0  0  0  0
  2  3  1  0  0  0  0
  3  4  1  0  0  0  0
  4  5  1  0  0  0  0
  4 30  1  0  0  0  0
  5  6  1  0  0  0  0
  6  7  1  0  0  0  0
  7  8  1  0  0  0  0
  7 29  1  0  0  0  0
  8  9  1  0  0  0  0
  9 10  1  0  0  0  0
 10 11  1  0  0  0  0
 11 12  1  0  0  0  0
 11 24  1  0  0  0  0
 12 13  2  0  0  0  0
 12 17  1  0  0  0  0
 13 14  1  0  0  0  0
 14 15  2  0  0  0  0
 15 16  1  0  0  0  0
 16 17  2  0  0  0  0
 17 18  1  0  0  0  0
 18 19  1  0  0  0  0
 19 20  2  0  0  0  0
 19 24  1  0  0  0  0
 20 21  1  0  0  0  0
 21 22  2  0  0  0  0
 22 23  1  0  0  0  0
 22 25  1  0  0  0  0
 23 24  2  0  0  0  0
 25 26  1  0  0  0  0
 25 27  1  0  0  0  0
 25 28  1  0  0  0  0
 29 30  1  0  0  0  0
M  END
$$$$

 OpenBabel12191814062D

 27 30  0  0  0  0  0  0  0  0999 V2000
   -2.8579    4.9500    0.0000 O   0  0  0  0  0  0  0  0  0  0  0  0
   -2.1434    4.5375    0.0000 C   0  0  0  0  0  0  0  0  0  0  0  0
   -1.4289    4.9500    0.0000 C   0  0  0  0  0  0  0  0  0  0  0  0
   -0.7145    4.5375    0.0000 N   0  0  0  0  0  0  0  0  0  0  0  0
   -0.0000    4.9500    0.0000 C   0  0  0  0  0  0  0  0  0  0  0  0
    0.7145    4.5375    0.0000 C   0  0  0  0  0  0  0  0  0  0  0  0
    0.7145    3.7125    0.0000 N   0  0  0  0  0  0  0  0  0  0  0  0
    1.4289    3.3000    0.0000 C   0  0  0  0  0  0  0  0  0  0  0  0
    1.4289    2.4750    0.0000 C   0  0  0  0  0  0  0  0  0  0  0  0
    2.1434    2.0625    0.0000 C   0  0  0  0  0  0  0  0  0  0  0  0
    2.1434    1.2375    0.0000 N   0  0  0  0  0  0  0  0  0  0  0  0
    2.8579    0.8250    0.0000 C   0  0  0  0  0  0  0  0  0  0  0  0
    3.5724    1.2375    0.0000 C   0  0  0  0  0  0  0  0  0  0  0  0
    4.2868    0.8250    0.0000 C   0  0  0  0  0  0  0  0  0  0  0  0
    4.2868   -0.0000    0.0000 C   0  0  0  0  0  0  0  0  0  0  0  0
    3.5724   -0.4125    0.0000 C   0  0  0  0  0  0  0  0  0  0  0  0
    2.8579    0.0000    0.0000 C   0  0  0  0  0  0  0  0  0  0  0  0
    2.1434   -0.4125    0.0000 S   0  0  0  0  0  0  0  0  0  0  0  0
    1.4289    0.0000    0.0000 C   0  0  0  0  0  0  0  0  0  0  0  0
    0.7145   -0.4125    0.0000 C   0  0  0  0  0  0  0  0  0  0  0  0
    0.0000    0.0000    0.0000 C   0  0  0  0  0  0  0  0  0  0  0  0
    0.0000    0.8250    0.0000 C   0  0  0  0  0  0  0  0  0  0  0  0
   -0.7145    1.2375    0.0000 Cl  0  0  0  0  0  0  0  0  0  0  0  0
    0.7145    1.2375    0.0000 C   0  0  0  0  0  0  0  0  0  0  0  0
    1.4289    0.8250    0.0000 C   0  0  0  0  0  0  0  0  0  0  0  0
   -0.0000    3.3000    0.0000 C   0  0  0  0  0  0  0  0  0  0  0  0
   -0.7145    3.7125    0.0000 C   0  0  0  0  0  0  0  0  0  0  0  0
  1  2  1  0  0  0  0
  2  3  1  0  0  0  0
  3  4  1  0  0  0  0
  4  5  1  0  0  0  0
  4 27  1  0  0  0  0
  5  6  1  0  0  0  0
  6  7  1  0  0  0  0
  7  8  1  0  0  0  0
  7 26  1  0  0  0  0
  8  9  1  0  0  0  0
  9 10  1  0  0  0  0
 10 11  1  0  0  0  0
 11 12  1  0  0  0  0
 11 25  1  0  0  0  0
 12 13  2  0  0  0  0
 12 17  1  0  0  0  0
 13 14  1  0  0  0  0
 14 15  2  0  0  0  0
 15 16  1  0  0  0  0
 16 17  2  0  0  0  0
 17 18  1  0  0  0  0
 18 19  1  0  0  0  0
 19 20  2  0  0  0  0
 19 25  1  0  0  0  0
 20 21  1  0  0  0  0
 21 22  2  0  0  0  0
 22 23  1  0  0  0  0
 22 24  1  0  0  0  0
 24 25  2  0  0  0  0
 26 27  1  0  0  0  0
M  END
$$$$

 OpenBabel12191814062D

 32 34  0  0  0  0  0  0  0  0999 V2000
   -6.4302   -7.8375    0.0000 O   0  0  0  0  0  0  0  0  0  0  0  0
   -5.7158   -7.4250    0.0000 C   0  0  0  0  0  0  0  0  0  0  0  0
   -5.7158   -6.6000    0.0000 C   0  0  0  0  0  0  0  0  0  0  0  0
   -5.0013   -6.1875    0.0000 N   0  0  0  0  0  0  0  0  0  0  0  0
   -5.0013   -5.3625    0.0000 C   0  0  0  0  0  0  0  0  0  0  0  0
   -4.2868   -4.9500    0.0000 C   0  0  0  0  0  0  0  0  0  0  0  0
   -4.2868   -4.1250    0.0000 C   0  0  0  0  0  0  0  0  0  0  0  0
   -3.5724   -3.7125    0.0000 N   0  0  0  0  0  0  0  0  0  0  0  0
   -3.5724   -2.8875    0.0000 C   0  0  0  0  0  0  0  0  0  0  0  0
   -4.2868   -2.4750    0.0000 C   0  0  0  0  0  0  0  0  0  0  0  0
   -4.2868   -1.6500    0.0000 C   0  0  0  0  0  0  0  0  0  0  0  0
   -3.5724   -1.2375    0.0000 C   0  0  0  0  0  0  0  0  0  0  0  0
   -2.8579   -1.6500    0.0000 C   0  0  0  0  0  0  0  0  0  0  0  0
   -2.1434   -1.2375    0.0000 C   0  0  0  0  0  0  0  0  0  0  0  0
   -2.1434   -0.4125    0.0000 O   0  0  0  0  0  0  0  0  0  0  0  0
   -1.4289   -1.6500    0.0000 C   0  0  0  0  0  0  0  0  0  0  0  0
   -0.7145   -1.2375    0.0000 C   0  0  0  0  0  0  0  0  0  0  0  0
   -0.7145   -0.4125    0.0000 N   0  0  0  0  0  0  0  0  0  0  0  0
    0.0000    0.0000    0.0000 C   0  0  0  0  0  0  0  0  0  0  0  0
    0.7145   -0.4125    0.0000 C   0  0  0  0  0  0  0  0  0  0  0  0
    1.4289    0.0000    0.0000 C   0  0  0  0  0  0  0  0  0  0  0  0
    2.1434   -0.4125    0.0000 N   0  0  0  0  0  0  0  0  0  0  0  0
    2.8579   -0.0000    0.0000 C   0  0  0  0  0  0  0  0  0  0  0  0
    3.5724   -0.4125    0.0000 C   0  0  0  0  0  0  0  0  0  0  0  0
    4.2868   -0.0000    0.0000 O   0  0  0  0  0  0  0  0  0  0  0  0
    0.0000   -1.6500    0.0000 C   0  0  0  0  0  0  0  0  0  0  0  0
    0.0000   -2.4750    0.0000 C   0  0  0  0  0  0  0  0  0  0  0  0
   -0.7145   -2.8875    0.0000 C   0  0  0  0  0  0  0  0  0  0  0  0
   -1.4289   -2.4750    0.0000 C   0  0  0  0  0  0  0  0  0  0  0  0
   -2.1434   -2.8875    0.0000 C   0  0  0  0  0  0  0  0  0  0  0  0
   -2.1434   -3.7125    0.0000 O   0  0  0  0  0  0  0  0  0  0  0  0
   -2.8579   -2.4750    0.0000 C   0  0  0  0  0  0  0  0  0  0  0  0
  1  2  1  0  0  0  0
  2  3  1  0  0  0  0
  3  4  1  0  0  0  0
  4  5  1  0  0  0  0
  5  6  1  0  0  0  0
  6  7  1  0  0  0  0
  7  8  1  0  0  0  0
  8  9  1  0  0  0  0
  9 10  2  0  0  0  0
  9 32  1  0  0  0  0
 10 11  1  0  0  0  0
 11 12  2  0  0  0  0
 12 13  1  0  0  0  0
 13 14  1  0  0  0  0
 13 32  2  0  0  0  0
 14 15  2  0  0  0  0
 14 16  1  0  0  0  0
 16 17  2  0  0  0  0
 16 29  1  0  0  0  0
 17 18  1  0  0  0  0
 17 26  1  0  0  0  0
 18 19  1  0  0  0  0
 19 20  1  0  0  0  0
 20 21  1  0  0  0  0
 21 22  1  0  0  0  0
 22 23  1  0  0  0  0
 23 24  1  0  0  0  0
 24 25  1  0  0  0  0
 26 27  2  0  0  0  0
 27 28  1  0  0  0  0
 28 29  2  0  0  0  0
 29 30  1  0  0  0  0
 30 31  2  0  0  0  0
 30 32  1  0  0  0  0
M  END
$$$$

 OpenBabel12191814062D

 26 28  0  0  0  0  0  0  0  0999 V2000
   -4.2868   -5.7750    0.0000 O   0  0  0  0  0  0  0  0  0  0  0  0
   -3.5724   -5.3625    0.0000 C   0  0  0  0  0  0  0  0  0  0  0  0
   -2.8579   -5.7750    0.0000 C   0  0  0  0  0  0  0  0  0  0  0  0
   -2.1434   -5.3625    0.0000 O   0  0  0  0  0  0  0  0  0  0  0  0
   -1.4289   -5.7750    0.0000 C   0  0  0  0  0  0  0  0  0  0  0  0
   -0.7145   -5.3625    0.0000 C   0  0  0  0  0  0  0  0  0  0  0  0
    0.0000   -5.7750    0.0000 N   0  0  0  0  0  0  0  0  0  0  0  0
    0.7145   -5.3625    0.0000 C   0  0  0  0  0  0  0  0  0  0  0  0
    1.4289   -5.7750    0.0000 C   0  0  0  0  0  0  0  0  0  0  0  0
    1.4289   -6.6000    0.0000 N   0  0  0  0  0  0  0  0  0  0  0  0
    0.7145   -7.0125    0.0000 C   0  0  0  0  0  0  0  0  0  0  0  0
    0.0000   -6.6000    0.0000 C   0  0  0  0  0  0  0  0  0  0  0  0
    2.1434   -7.0125    0.0000 C   0  0  3  0  0  0  0  0  0  0  0  0
    2.1434   -7.8375    0.0000 C   0  0  0  0  0  0  0  0  0  0  0  0
    2.8579   -8.2500    0.0000 C   0  0  0  0  0  0  0  0  0  0  0  0
    2.8579   -9.0750    0.0000 C   0  0  0  0  0  0  0  0  0  0  0  0
    2.1434   -9.4875    0.0000 C   0  0  0  0  0  0  0  0  0  0  0  0
    1.4289   -9.0750    0.0000 C   0  0  0  0  0  0  0  0  0  0  0  0
    1.4289   -8.2500    0.0000 C   0  0  0  0  0  0  0  0  0  0  0  0
    2.8579   -6.6000    0.0000 C   0  0  0  0  0  0  0  0  0  0  0  0
    2.8579   -5.7750    0.0000 C   0  0  0  0  0  0  0  0  0  0  0  0
    3.5724   -5.3625    0.0000 C   0  0  0  0  0  0  0  0  0  0  0  0
    4.2868   -5.7750    0.0000 C   0  0  0  0  0  0  0  0  0  0  0  0
    5.0013   -5.3625    0.0000 Cl  0  0  0  0  0  0  0  0  0  0  0  0
    4.2868   -6.6000    0.0000 C   0  0  0  0  0  0  0  0  0  0  0  0
    3.5724   -7.0125    0.0000 C   0  0  0  0  0  0  0  0  0  0  0  0
  1  2  1  0  0  0  0
  2  3  1  0  0  0  0
  3  4  1  0  0  0  0
  4  5  1  0  0  0  0
  5  6  1  0  0  0  0
  6  7  1  0  0  0  0
  7  8  1  0  0  0  0
  7 12  1  0  0  0  0
  8  9  1  0  0  0  0
  9 10  1  0  0  0  0
 10 11  1  0  0  0  0
 10 13  1  0  0  0  0
 11 12  1  0  0  0  0
 13 14  1  0  0  0  0
 13 20  1  0  0  0  0
 14 15  2  0  0  0  0
 14 19  1  0  0  0  0
 15 16  1  0  0  0  0
 16 17  2  0  0  0  0
 17 18  1  0  0  0  0
 18 19  2  0  0  0  0
 20 21  2  0  0  0  0
 20 26  1  0  0  0  0
 21 22  1  0  0  0  0
 22 23  2  0  0  0  0
 23 24  1  0  0  0  0
 23 25  1  0  0  0  0
 25 26  2  0  0  0  0
M  END
$$$$

 OpenBabel12191814062D

 27 30  0  0  0  0  0  0  0  0999 V2000
    0.0386   -6.8751    0.0000 O   0  0  0  0  0  0  0  0  0  0  0  0
    0.7531   -6.4626    0.0000 C   0  0  0  0  0  0  0  0  0  0  0  0
    1.4675   -6.8751    0.0000 C   0  0  0  0  0  0  0  0  0  0  0  0
    2.1820   -6.4626    0.0000 O   0  0  0  0  0  0  0  0  0  0  0  0
    2.8965   -6.8751    0.0000 C   0  0  0  0  0  0  0  0  0  0  0  0
    3.6110   -6.4626    0.0000 C   0  0  0  0  0  0  0  0  0  0  0  0
    4.3254   -6.8751    0.0000 N   0  0  0  0  0  0  0  0  0  0  0  0
    5.0399   -6.4626    0.0000 C   0  0  0  0  0  0  0  0  0  0  0  0
    5.7544   -6.8751    0.0000 C   0  0  0  0  0  0  0  0  0  0  0  0
    5.7544   -7.7001    0.0000 N   0  0  0  0  0  0  0  0  0  0  0  0
    5.0399   -8.1126    0.0000 C   0  0  0  0  0  0  0  0  0  0  0  0
    4.3254   -7.7001    0.0000 C   0  0  0  0  0  0  0  0  0  0  0  0
    6.4688   -8.1126    0.0000 C   0  0  0  0  0  0  0  0  0  0  0  0
    7.1505   -7.6478    0.0000 N   0  0  0  0  0  0  0  0  0  0  0  0
    7.9388   -7.8910    0.0000 C   0  0  0  0  0  0  0  0  0  0  0  0
    8.4532   -7.2460    0.0000 C   0  0  0  0  0  0  0  0  0  0  0  0
    9.2690   -7.3689    0.0000 C   0  0  0  0  0  0  0  0  0  0  0  0
    9.5704   -8.1369    0.0000 C   0  0  0  0  0  0  0  0  0  0  0  0
    9.0560   -8.7819    0.0000 C   0  0  0  0  0  0  0  0  0  0  0  0
    8.2402   -8.6590    0.0000 C   0  0  0  0  0  0  0  0  0  0  0  0
    7.8277   -9.3734    0.0000 S   0  0  0  0  0  0  0  0  0  0  0  0
    7.0120   -9.4964    0.0000 C   0  0  0  0  0  0  0  0  0  0  0  0
    6.8284  -10.3007    0.0000 C   0  0  0  0  0  0  0  0  0  0  0  0
    6.0400  -10.5439    0.0000 C   0  0  0  0  0  0  0  0  0  0  0  0
    5.4353   -9.9827    0.0000 C   0  0  0  0  0  0  0  0  0  0  0  0
    5.6188   -9.1784    0.0000 C   0  0  0  0  0  0  0  0  0  0  0  0
    6.4072   -8.9353    0.0000 C   0  0  0  0  0  0  0  0  0  0  0  0
  1  2  1  0  0  0  0
  2  3  1  0  0  0  0
  3  4  1  0  0  0  0
  4  5  1  0  0  0  0
  5  6  1  0  0  0  0
  6  7  1  0  0  0  0
  7  8  1  0  0  0  0
  7 12  1  0  0  0  0
  8  9  1  0  0  0  0
  9 10  1  0  0  0  0
 10 11  1  0  0  0  0
 10 13  1  0  0  0  0
 11 12  1  0  0  0  0
 13 14  2  0  0  0  0
 13 27  1  0  0  0  0
 14 15  1  0  0  0  0
 15 16  2  0  0  0  0
 15 20  1  0  0  0  0
 16 17  1  0  0  0  0
 17 18  2  0  0  0  0
 18 19  1  0  0  0  0
 19 20  2  0  0  0  0
 20 21  1  0  0  0  0
 21 22  1  0  0  0  0
 22 23  2  0  0  0  0
 22 27  1  0  0  0  0
 23 24  1  0  0  0  0
 24 25  2  0  0  0  0
 25 26  1  0  0  0  0
 26 27  2  0  0  0  0
M  END
$$$$

 OpenBabel12191814062D

 28 30  0  0  0  0  0  0  0  0999 V2000
   -5.7158    0.8250    0.0000 O   0  0  0  0  0  0  0  0  0  0  0  0
   -5.0013    0.4125    0.0000 C   0  0  0  0  0  0  0  0  0  0  0  0
   -4.2868    0.8250    0.0000 C   0  0  0  0  0  0  0  0  0  0  0  0
   -3.5724    0.4125    0.0000 O   0  0  0  0  0  0  0  0  0  0  0  0
   -2.8579    0.8250    0.0000 C   0  0  0  0  0  0  0  0  0  0  0  0
   -2.1434    0.4125    0.0000 C   0  0  0  0  0  0  0  0  0  0  0  0
   -1.4289    0.8250    0.0000 O   0  0  0  0  0  0  0  0  0  0  0  0
   -0.7145    0.4125    0.0000 C   0  0  0  0  0  0  0  0  0  0  0  0
   -0.0000    0.8250    0.0000 C   0  0  0  0  0  0  0  0  0  0  0  0
   -0.0000    1.6500    0.0000 N   0  0  0  0  0  0  0  0  0  0  0  0
   -0.7145    2.0625    0.0000 C   0  0  0  0  0  0  0  0  0  0  0  0
   -0.7145    2.8875    0.0000 C   0  0  0  0  0  0  0  0  0  0  0  0
   -0.0000    3.3000    0.0000 C   0  0  0  0  0  0  0  0  0  0  0  0
    0.7145    2.8875    0.0000 C   0  0  0  0  0  0  0  0  0  0  0  0
    0.7145    2.0625    0.0000 C   0  0  0  0  0  0  0  0  0  0  0  0
    0.0000    4.1250    0.0000 C   0  0  0  0  0  0  0  0  0  0  0  0
    0.7145    4.5375    0.0000 C   0  0  0  0  0  0  0  0  0  0  0  0
    0.7145    5.3625    0.0000 C   0  0  0  0  0  0  0  0  0  0  0  0
    1.4289    5.7750    0.0000 C   0  0  0  0  0  0  0  0  0  0  0  0
    2.1434    5.3625    0.0000 C   0  0  0  0  0  0  0  0  0  0  0  0
    2.1434    4.5375    0.0000 C   0  0  0  0  0  0  0  0  0  0  0  0
    1.4289    4.1250    0.0000 C   0  0  0  0  0  0  0  0  0  0  0  0
   -0.7145    4.5375    0.0000 C   0  0  0  0  0  0  0  0  0  0  0  0
   -1.4289    4.1250    0.0000 C   0  0  0  0  0  0  0  0  0  0  0  0
   -2.1434    4.5375    0.0000 C   0  0  0  0  0  0  0  0  0  0  0  0
   -2.1434    5.3625    0.0000 C   0  0  0  0  0  0  0  0  0  0  0  0
   -1.4289    5.7750    0.0000 C   0  0  0  0  0  0  0  0  0  0  0  0
   -0.7145    5.3625    0.0000 C   0  0  0  0  0  0  0  0  0  0  0  0
  1  2  1  0  0  0  0
  2  3  1  0  0  0  0
  3  4  1  0  0  0  0
  4  5  1  0  0  0  0
  5  6  1  0  0  0  0
  6  7  1  0  0  0  0
  7  8  1  0  0  0  0
  8  9  1  0  0  0  0
  9 10  1  0  0  0  0
 10 11  1  0  0  0  0
 10 15  1  0  0  0  0
 11 12  1  0  0  0  0
 12 13  1  0  0  0  0
 13 14  1  0  0  0  0
 13 16  2  0  0  0  0
 14 15  1  0  0  0  0
 16 17  1  0  0  0  0
 16 23  1  0  0  0  0
 17 18  2  0  0  0  0
 17 22  1  0  0  0  0
 18 19  1  0  0  0  0
 19 20  2  0  0  0  0
 20 21  1  0  0  0  0
 21 22  2  0  0  0  0
 23 24  2  0  0  0  0
 23 28  1  0  0  0  0
 24 25  1  0  0  0  0
 25 26  2  0  0  0  0
 26 27  1  0  0  0  0
 27 28  2  0  0  0  0
M  END
$$$$

 OpenBabel12191814062D

 30 33  0  0  0  0  0  0  0  0999 V2000
   -0.2547   -7.8280    0.0000 O   0  0  0  0  0  0  0  0  0  0  0  0
    0.4598   -8.2405    0.0000 C   0  0  0  0  0  0  0  0  0  0  0  0
    1.1743   -7.8280    0.0000 C   0  0  0  0  0  0  0  0  0  0  0  0
    1.8887   -8.2405    0.0000 O   0  0  0  0  0  0  0  0  0  0  0  0
    2.6032   -7.8280    0.0000 C   0  0  0  0  0  0  0  0  0  0  0  0
    3.3177   -8.2405    0.0000 C   0  0  0  0  0  0  0  0  0  0  0  0
    4.0321   -7.8280    0.0000 O   0  0  0  0  0  0  0  0  0  0  0  0
    4.7466   -8.2405    0.0000 C   0  0  0  0  0  0  0  0  0  0  0  0
    5.4611   -7.8280    0.0000 C   0  0  0  0  0  0  0  0  0  0  0  0
    6.1756   -8.2405    0.0000 N   0  0  0  0  0  0  0  0  0  0  0  0
    6.8900   -7.8280    0.0000 C   0  0  0  0  0  0  0  0  0  0  0  0
    7.6045   -8.2405    0.0000 C   0  0  0  0  0  0  0  0  0  0  0  0
    7.6045   -9.0655    0.0000 C   0  0  0  0  0  0  0  0  0  0  0  0
    6.8900   -9.4780    0.0000 C   0  0  0  0  0  0  0  0  0  0  0  0
    6.1756   -9.0655    0.0000 C   0  0  0  0  0  0  0  0  0  0  0  0
    8.3190   -9.4780    0.0000 C   0  0  0  0  0  0  0  0  0  0  0  0
    9.0006   -9.0133    0.0000 C   0  0  0  0  0  0  0  0  0  0  0  0
    8.9883   -8.1884    0.0000 C   0  0  0  0  0  0  0  0  0  0  0  0
    9.7690   -7.9217    0.0000 C   0  0  0  0  0  0  0  0  0  0  0  0
   10.2638   -8.5818    0.0000 S   0  0  0  0  0  0  0  0  0  0  0  0
    9.7890   -9.2564    0.0000 C   0  0  0  0  0  0  0  0  0  0  0  0
   10.0904  -10.0244    0.0000 C   0  0  0  0  0  0  0  0  0  0  0  0
   10.9131  -10.0861    0.0000 O   0  0  0  0  0  0  0  0  0  0  0  0
    9.6779  -10.7389    0.0000 C   0  0  0  0  0  0  0  0  0  0  0  0
    8.8621  -10.8619    0.0000 C   0  0  0  0  0  0  0  0  0  0  0  0
    8.6785  -11.6662    0.0000 C   0  0  0  0  0  0  0  0  0  0  0  0
    7.8902  -11.9093    0.0000 C   0  0  0  0  0  0  0  0  0  0  0  0
    7.2854  -11.3482    0.0000 C   0  0  0  0  0  0  0  0  0  0  0  0
    7.4690  -10.5439    0.0000 C   0  0  0  0  0  0  0  0  0  0  0  0
    8.2573  -10.3007    0.0000 C   0  0  0  0  0  0  0  0  0  0  0  0
  1  2  1  0  0  0  0
  2  3  1  0  0  0  0
  3  4  1  0  0  0  0
  4  5  1  0  0  0  0
  5  6  1  0  0  0  0
  6  7  1  0  0  0  0
  7  8  1  0  0  0  0
  8  9  1  0  0  0  0
  9 10  1  0  0  0  0
 10 11  1  0  0  0  0
 10 15  1  0  0  0  0
 11 12  1  0  0  0  0
 12 13  1  0  0  0  0
 13 14  1  0  0  0  0
 13 16  2  0  0  0  0
 14 15  1  0  0  0  0
 16 17  1  0  0  0  0
 16 30  1  0  0  0  0
 17 18  1  0  0  0  0
 17 21  2  0  0  0  0
 18 19  2  0  0  0  0
 19 20  1  0  0  0  0
 20 21  1  0  0  0  0
 21 22  1  0  0  0  0
 22 23  2  0  0  0  0
 22 24  1  0  0  0  0
 24 25  1  0  0  0  0
 25 26  2  0  0  0  0
 25 30  1  0  0  0  0
 26 27  1  0  0  0  0
 27 28  2  0  0  0  0
 28 29  1  0  0  0  0
 29 30  2  0  0  0  0
M  END
$$$$

 OpenBabel12191814062D

 32 34  0  0  0  0  0  0  0  0999 V2000
   10.7171   -2.8875    0.0000 O   0  0  0  0  0  0  0  0  0  0  0  0
   11.4315   -3.3000    0.0000 C   0  0  0  0  0  0  0  0  0  0  0  0
   12.1460   -2.8875    0.0000 C   0  0  0  0  0  0  0  0  0  0  0  0
   12.8605   -3.3000    0.0000 O   0  0  0  0  0  0  0  0  0  0  0  0
   13.5749   -2.8875    0.0000 C   0  0  0  0  0  0  0  0  0  0  0  0
   14.2894   -3.3000    0.0000 C   0  0  0  0  0  0  0  0  0  0  0  0
   15.0039   -2.8875    0.0000 O   0  0  0  0  0  0  0  0  0  0  0  0
   15.7184   -3.3000    0.0000 C   0  0  0  0  0  0  0  0  0  0  0  0
   16.4328   -2.8875    0.0000 C   0  0  0  0  0  0  0  0  0  0  0  0
   17.1473   -3.3000    0.0000 O   0  0  0  0  0  0  0  0  0  0  0  0
   17.8618   -2.8875    0.0000 C   0  0  0  0  0  0  0  0  0  0  0  0
   18.5762   -3.3000    0.0000 C   0  0  0  0  0  0  0  0  0  0  0  0
   19.2907   -2.8875    0.0000 O   0  0  0  0  0  0  0  0  0  0  0  0
   20.0052   -3.3000    0.0000 C   0  0  0  0  0  0  0  0  0  0  0  0
   20.7197   -2.8875    0.0000 C   0  0  0  0  0  0  0  0  0  0  0  0
   21.4341   -3.3000    0.0000 C   0  0  0  0  0  0  0  0  0  0  0  0
   21.4341   -4.1250    0.0000 C   0  0  0  0  0  0  0  0  0  0  0  0
   20.7197   -4.5375    0.0000 C   0  0  0  0  0  0  0  0  0  0  0  0
   20.0052   -4.1250    0.0000 C   0  0  0  0  0  0  0  0  0  0  0  0
   22.1486   -4.5375    0.0000 C   0  0  0  0  0  0  0  0  0  0  0  0
   22.8631   -4.1250    0.0000 C   0  0  0  0  0  0  0  0  0  0  0  0
   23.5775   -4.5375    0.0000 C   0  0  0  0  0  0  0  0  0  0  0  0
   24.2920   -4.1250    0.0000 O   0  0  0  0  0  0  0  0  0  0  0  0
   23.5775   -5.3625    0.0000 C   0  0  0  0  0  0  0  0  0  0  0  0
   24.2920   -5.7750    0.0000 C   0  0  0  0  0  0  0  0  0  0  0  0
   25.0065   -5.3625    0.0000 O   0  0  0  0  0  0  0  0  0  0  0  0
   24.2920   -6.6000    0.0000 C   0  0  0  0  0  0  0  0  0  0  0  0
   23.5775   -7.0125    0.0000 C   0  0  0  0  0  0  0  0  0  0  0  0
   23.5775   -7.8375    0.0000 O   0  0  0  0  0  0  0  0  0  0  0  0
   22.8631   -6.6000    0.0000 C   0  0  0  0  0  0  0  0  0  0  0  0
   22.8631   -5.7750    0.0000 C   0  0  0  0  0  0  0  0  0  0  0  0
   22.1486   -5.3625    0.0000 O   0  0  0  0  0  0  0  0  0  0  0  0
  1  2  1  0  0  0  0
  2  3  1  0  0  0  0
  3  4  1  0  0  0  0
  4  5  1  0  0  0  0
  5  6  1  0  0  0  0
  6  7  1  0  0  0  0
  7  8  1  0  0  0  0
  8  9  1  0  0  0  0
  9 10  1  0  0  0  0
 10 11  1  0  0  0  0
 11 12  1  0  0  0  0
 12 13  1  0  0  0  0
 13 14  1  0  0  0  0
 14 15  2  0  0  0  0
 14 19  1  0  0  0  0
 15 16  1  0  0  0  0
 16 17  2  0  0  0  0
 17 18  1  0  0  0  0
 17 20  1  0  0  0  0
 18 19  2  0  0  0  0
 20 21  2  0  0  0  0
 20 32  1  0  0  0  0
 21 22  1  0  0  0  0
 22 23  2  0  0  0  0
 22 24  1  0  0  0  0
 24 25  2  0  0  0  0
 24 31  1  0  0  0  0
 25 26  1  0  0  0  0
 25 27  1  0  0  0  0
 27 28  2  0  0  0  0
 28 29  1  0  0  0  0
 28 30  1  0  0  0  0
 30 31  2  0  0  0  0
 31 32  1  0  0  0  0
M  END
$$$$
